/*--------------------------------*- C++ -*----------------------------------*\
| =========                 |                                                 |
| \\      /  F ield         | OpenFOAM: The Open Source CFD Toolbox           |
|  \\    /   O peration     | Version:  11                                    |
|   \\  /    A nd           | Web:      www.openfoam.org                      |
|    \\/     M anipulation  |                                                 |
\*---------------------------------------------------------------------------*/
FoamFile
{
    version     2.0;
    format      ascii;
    class       volScalarField;
    object      nut;
}
// * * * * * * * * * * * * * * * * * * * * * * * * * * * * * * * * * * * * * //

dimensions      [0 2 -1 0 0 0 0];


internalField   uniform 0;

boundaryField
{
    #includeEtc "caseDicts/setConstraintTypes"

    top
    {
        type            symmetry;
    }
    reactor_HD0.45
    {
        type            nutkWallFunction;
        value           uniform 0;
    }
    shaft_HD0.45
    {
        type            nutkWallFunction;
        value           uniform 0;
    }
    impeller_HD0.45
    {
        type            nutkWallFunction;
        value           uniform 0;
    }
    baffle_HD0.45
    {
       type             nutkWallFunction;
        value           uniform 0;
    }
    AMI1
    {
        type            zeroGradient;
    }
    AMI2
    {
        type            zeroGradient;
    }
}


// ************************************************************************* //
