/*--------------------------------*- C++ -*----------------------------------*\
| =========                 |                                                 |
| \\      /  F ield         | OpenFOAM: The Open Source CFD Toolbox           |
|  \\    /   O peration     | Version:  11                                    |
|   \\  /    A nd           | Web:      www.openfoam.org                      |
|    \\/     M anipulation  |                                                 |
\*---------------------------------------------------------------------------*/
FoamFile
{
    version     2.0;
    format      ascii;
    class       dictionary;
    object      surfaceFeaturesDict;
}
// * * * * * * * * * * * * * * * * * * * * * * * * * * * * * * * * * * * * * //

reactor_HD0.45.stl
{
    surfaces        ("reactor_HD0.45.stl");
    includedAngle   150;
    writeFeatureEdgeMesh yes;
}

impeller_HD0.45.stl
{
    surfaces        ("impeller_HD0.45.stl");
    includedAngle   150;
    writeFeatureEdgeMesh yes;
}

baffle_HD0.45.stl
{
    surfaces        ("baffle_HD0.45.stl");
    includedAngle   150;
    writeFeatureEdgeMesh yes;
}

shaft_HD0.45.stl
{
    surfaces        ("shaft_HD0.45.stl");
    includedAngle   150;
    writeFeatureEdgeMesh yes;
}

rotation_HD0.45.stl
{
    surfaces        ("rotation_HD0.45.stl");
    includedAngle   150;
    writeFeatureEdgeMesh yes;
}

// ************************************************************************* //
