/*--------------------------------*- C++ -*----------------------------------*\
| =========                 |                                                 |
| \\      /  F ield         | OpenFOAM: The Open Source CFD Toolbox           |
|  \\    /   O peration     | Version:  v2012                                 |
|   \\  /    A nd           | Website:  www.openfoam.com                      |
|    \\/     M anipulation  |                                                 |
\*---------------------------------------------------------------------------*/
FoamFile
{
    version     2.0;
    format      ascii;
    class       featureEdgeMesh;
    location    "constant/triSurface";
    object      reactor_HD0.45.eMesh;
}
// * * * * * * * * * * * * * * * * * * * * * * * * * * * * * * * * * * * * * //


// points:

142
(
(0.202302 0.104 -0.00895725)
(0.2025 0.104 2.65056e-17)
(0.201708 0.104 -0.017897)
(0.200719 0.104 -0.0268017)
(0.199337 0.104 -0.0356539)
(0.197564 0.104 -0.0444363)
(0.195405 0.104 -0.0531317)
(0.192864 0.104 -0.0617232)
(0.189945 0.104 -0.0701938)
(0.186654 0.104 -0.078527)
(0.182998 0.104 -0.0867064)
(0.178984 0.104 -0.0947162)
(0.174619 0.104 -0.102541)
(0.169912 0.104 -0.110164)
(0.164873 0.104 -0.117572)
(0.159511 0.104 -0.12475)
(0.153837 0.104 -0.131683)
(0.147861 0.104 -0.138359)
(0.141596 0.104 -0.144764)
(0.135054 0.104 -0.150886)
(0.128248 0.104 -0.156712)
(0.121191 0.104 -0.162232)
(0.113896 0.104 -0.167433)
(0.106378 0.104 -0.172308)
(0.0986525 0.104 -0.176844)
(0.0907335 0.104 -0.181035)
(0.0826369 0.104 -0.184871)
(0.0743786 0.104 -0.188346)
(0.0659746 0.104 -0.191451)
(0.0574415 0.104 -0.194182)
(0.048796 0.104 -0.196533)
(0.0400549 0.104 -0.198499)
(0.0312354 0.104 -0.200076)
(0.0223548 0.104 -0.201262)
(0.0134304 0.104 -0.202054)
(0.00447972 0.104 -0.20245)
(-0.00447972 0.104 -0.20245)
(-0.0134304 0.104 -0.202054)
(-0.0223548 0.104 -0.201262)
(-0.0312354 0.104 -0.200076)
(-0.0400549 0.104 -0.198499)
(-0.048796 0.104 -0.196533)
(-0.0574415 0.104 -0.194182)
(-0.0659746 0.104 -0.191451)
(-0.0743786 0.104 -0.188346)
(-0.0826369 0.104 -0.184871)
(-0.0907335 0.104 -0.181035)
(-0.0986525 0.104 -0.176844)
(-0.106378 0.104 -0.172308)
(-0.113896 0.104 -0.167433)
(-0.121191 0.104 -0.162232)
(-0.128248 0.104 -0.156712)
(-0.135054 0.104 -0.150886)
(-0.141596 0.104 -0.144764)
(-0.147861 0.104 -0.138359)
(-0.153837 0.104 -0.131683)
(-0.159511 0.104 -0.12475)
(-0.164873 0.104 -0.117572)
(-0.169912 0.104 -0.110164)
(-0.174619 0.104 -0.102541)
(-0.178984 0.104 -0.0947162)
(-0.182998 0.104 -0.0867064)
(-0.186654 0.104 -0.078527)
(-0.189945 0.104 -0.0701938)
(-0.192864 0.104 -0.0617232)
(-0.195405 0.104 -0.0531317)
(-0.197564 0.104 -0.0444363)
(-0.199337 0.104 -0.0356539)
(-0.200719 0.104 -0.0268017)
(-0.201708 0.104 -0.017897)
(-0.202302 0.104 -0.00895725)
(-0.2025 0.104 -3.17676e-16)
(-0.202302 0.104 0.00895725)
(-0.201708 0.104 0.017897)
(-0.200719 0.104 0.0268017)
(-0.199337 0.104 0.0356539)
(-0.197564 0.104 0.0444363)
(-0.195405 0.104 0.0531317)
(-0.192864 0.104 0.0617232)
(-0.189945 0.104 0.0701938)
(-0.186654 0.104 0.078527)
(-0.182998 0.104 0.0867064)
(-0.178984 0.104 0.0947162)
(-0.174619 0.104 0.102541)
(-0.169912 0.104 0.110164)
(-0.164873 0.104 0.117572)
(-0.159511 0.104 0.12475)
(-0.153837 0.104 0.131683)
(-0.147861 0.104 0.138359)
(-0.141596 0.104 0.144764)
(-0.135054 0.104 0.150886)
(-0.128248 0.104 0.156712)
(-0.121191 0.104 0.162232)
(-0.113896 0.104 0.167433)
(-0.106378 0.104 0.172308)
(-0.0986525 0.104 0.176844)
(-0.0907335 0.104 0.181035)
(-0.0826369 0.104 0.184871)
(-0.0743786 0.104 0.188346)
(-0.0659746 0.104 0.191451)
(-0.0574415 0.104 0.194182)
(-0.048796 0.104 0.196533)
(-0.0400549 0.104 0.198499)
(-0.0312354 0.104 0.200076)
(-0.0223548 0.104 0.201262)
(-0.0134304 0.104 0.202054)
(-0.00447972 0.104 0.20245)
(0.00447972 0.104 0.20245)
(0.0134304 0.104 0.202054)
(0.0223548 0.104 0.201262)
(0.0312354 0.104 0.200076)
(0.0400549 0.104 0.198499)
(0.048796 0.104 0.196533)
(0.0574415 0.104 0.194182)
(0.0659746 0.104 0.191451)
(0.0743786 0.104 0.188346)
(0.0826369 0.104 0.184871)
(0.0907335 0.104 0.181035)
(0.0986525 0.104 0.176844)
(0.106378 0.104 0.172308)
(0.113896 0.104 0.167433)
(0.121191 0.104 0.162232)
(0.128248 0.104 0.156712)
(0.135054 0.104 0.150886)
(0.141596 0.104 0.144764)
(0.147861 0.104 0.138359)
(0.153837 0.104 0.131683)
(0.159511 0.104 0.12475)
(0.164873 0.104 0.117572)
(0.169912 0.104 0.110164)
(0.174619 0.104 0.102541)
(0.178984 0.104 0.0947162)
(0.182998 0.104 0.0867064)
(0.186654 0.104 0.078527)
(0.189945 0.104 0.0701938)
(0.192864 0.104 0.0617232)
(0.195405 0.104 0.0531317)
(0.197564 0.104 0.0444363)
(0.199337 0.104 0.0356539)
(0.200719 0.104 0.0268017)
(0.201708 0.104 0.017897)
(0.202302 0.104 0.00895725)
)


// edges:

142
(
(0 1)
(2 0)
(3 2)
(4 3)
(5 4)
(6 5)
(7 6)
(8 7)
(9 8)
(10 9)
(11 10)
(12 11)
(13 12)
(14 13)
(15 14)
(16 15)
(17 16)
(18 17)
(19 18)
(20 19)
(21 20)
(22 21)
(23 22)
(24 23)
(25 24)
(26 25)
(27 26)
(28 27)
(29 28)
(30 29)
(31 30)
(32 31)
(33 32)
(34 33)
(35 34)
(36 35)
(37 36)
(38 37)
(39 38)
(40 39)
(41 40)
(42 41)
(43 42)
(44 43)
(45 44)
(46 45)
(47 46)
(48 47)
(49 48)
(50 49)
(51 50)
(52 51)
(53 52)
(54 53)
(55 54)
(56 55)
(57 56)
(58 57)
(59 58)
(60 59)
(61 60)
(62 61)
(63 62)
(64 63)
(65 64)
(66 65)
(67 66)
(68 67)
(69 68)
(70 69)
(71 70)
(72 71)
(73 72)
(74 73)
(75 74)
(76 75)
(77 76)
(78 77)
(79 78)
(80 79)
(81 80)
(82 81)
(83 82)
(84 83)
(85 84)
(86 85)
(87 86)
(88 87)
(89 88)
(90 89)
(91 90)
(92 91)
(93 92)
(94 93)
(95 94)
(96 95)
(97 96)
(98 97)
(99 98)
(100 99)
(101 100)
(102 101)
(103 102)
(104 103)
(105 104)
(106 105)
(107 106)
(108 107)
(109 108)
(110 109)
(111 110)
(112 111)
(113 112)
(114 113)
(115 114)
(116 115)
(117 116)
(118 117)
(119 118)
(120 119)
(121 120)
(122 121)
(123 122)
(124 123)
(125 124)
(126 125)
(127 126)
(128 127)
(129 128)
(130 129)
(131 130)
(132 131)
(133 132)
(134 133)
(135 134)
(136 135)
(137 136)
(138 137)
(139 138)
(140 139)
(141 140)
(1 141)
)

// * * * * * * * * * * * * * * * * * * * * * * * * * * * * * * * * * * * * * //


// ************************************************************************* //
