/*--------------------------------*- C++ -*----------------------------------*\
| =========                 |                                                 |
| \\      /  F ield         | OpenFOAM: The Open Source CFD Toolbox           |
|  \\    /   O peration     | Version:  v2012                                 |
|   \\  /    A nd           | Website:  www.openfoam.com                      |
|    \\/     M anipulation  |                                                 |
\*---------------------------------------------------------------------------*/
FoamFile
{
    version     2.0;
    format      ascii;
    class       featureEdgeMesh;
    location    "constant/triSurface";
    object      shaft_HD0.45.eMesh;
}
// * * * * * * * * * * * * * * * * * * * * * * * * * * * * * * * * * * * * * //


// points:

94
(
(0.02215 0.04 0)
(0.0219524 0.04 0.00295231)
(0.0219524 0.104 0.00295231)
(0.02215 0.104 0)
(0.021363 0.104 0.00585193)
(0.021363 0.04 0.00585193)
(0.0203924 0.04 0.00864712)
(0.0203924 0.104 0.00864712)
(0.0190579 0.04 0.011288)
(0.0190579 0.104 0.011288)
(0.0173833 0.04 0.0137275)
(0.0153985 0.04 0.0159219)
(0.0173833 0.104 0.0137275)
(0.0153985 0.104 0.0159219)
(0.0131389 0.04 0.0178323)
(0.0106449 0.04 0.0194244)
(0.0131389 0.104 0.0178323)
(0.0106449 0.104 0.0194244)
(0.00796088 0.04 0.02067)
(0.00513482 0.04 0.0215466)
(0.00796088 0.104 0.02067)
(0.00513482 0.104 0.0215466)
(0.00221712 0.04 0.0220388)
(0.00221712 0.104 0.0220388)
(-0.000740142 0.04 0.0221376)
(-0.000740142 0.104 0.0221376)
(-0.0036842 0.04 0.0218415)
(-0.0036842 0.104 0.0218415)
(-0.0065625 0.04 0.0211555)
(-0.0065625 0.104 0.0211555)
(-0.0093237 0.04 0.0200921)
(-0.0093237 0.104 0.0200921)
(-0.0119185 0.04 0.0186701)
(-0.0119185 0.104 0.0186701)
(-0.0143007 0.04 0.0169149)
(-0.0143007 0.104 0.0169149)
(-0.0164276 0.04 0.0148579)
(-0.0164276 0.104 0.0148579)
(-0.0182614 0.04 0.0125357)
(-0.0182614 0.104 0.0125357)
(-0.0197693 0.04 0.00998987)
(-0.0197693 0.104 0.00998987)
(-0.0209244 0.04 0.00726575)
(-0.0209244 0.104 0.00726575)
(-0.0217062 0.04 0.00441197)
(-0.0217062 0.104 0.00441197)
(-0.0221005 0.04 0.00147946)
(-0.0221005 0.104 0.00147946)
(-0.0221005 0.04 -0.00147946)
(-0.0221005 0.104 -0.00147946)
(-0.0217062 0.04 -0.00441197)
(-0.0217062 0.104 -0.00441197)
(-0.0209244 0.104 -0.00726575)
(-0.0209244 0.04 -0.00726575)
(-0.0197693 0.104 -0.00998987)
(-0.0197693 0.04 -0.00998987)
(-0.0182614 0.04 -0.0125357)
(-0.0182614 0.104 -0.0125357)
(-0.0164276 0.104 -0.0148579)
(-0.0164276 0.04 -0.0148579)
(-0.0143007 0.104 -0.0169149)
(-0.0143007 0.04 -0.0169149)
(-0.0119185 0.104 -0.0186701)
(-0.0119185 0.04 -0.0186701)
(-0.0093237 0.104 -0.0200921)
(-0.0093237 0.04 -0.0200921)
(-0.0065625 0.104 -0.0211555)
(-0.0065625 0.04 -0.0211555)
(-0.0036842 0.104 -0.0218415)
(-0.0036842 0.04 -0.0218415)
(-0.000740142 0.04 -0.0221376)
(-0.000740142 0.104 -0.0221376)
(0.00221712 0.04 -0.0220388)
(0.00221712 0.104 -0.0220388)
(0.00513482 0.04 -0.0215466)
(0.00796088 0.04 -0.02067)
(0.00513482 0.104 -0.0215466)
(0.00796088 0.104 -0.02067)
(0.0106449 0.04 -0.0194244)
(0.0106449 0.104 -0.0194244)
(0.0131389 0.04 -0.0178323)
(0.0131389 0.104 -0.0178323)
(0.0153985 0.04 -0.0159219)
(0.0153985 0.104 -0.0159219)
(0.0173833 0.04 -0.0137275)
(0.0173833 0.104 -0.0137275)
(0.0190579 0.04 -0.011288)
(0.0203924 0.04 -0.00864712)
(0.0190579 0.104 -0.011288)
(0.021363 0.04 -0.00585193)
(0.0203924 0.104 -0.00864712)
(0.021363 0.104 -0.00585193)
(0.0219524 0.04 -0.00295231)
(0.0219524 0.104 -0.00295231)
)


// edges:

94
(
(0 1)
(2 3)
(4 2)
(1 5)
(5 6)
(7 4)
(6 8)
(9 7)
(8 10)
(10 11)
(12 9)
(13 12)
(11 14)
(14 15)
(16 13)
(17 16)
(15 18)
(18 19)
(20 17)
(21 20)
(19 22)
(23 21)
(22 24)
(25 23)
(24 26)
(27 25)
(26 28)
(29 27)
(28 30)
(31 29)
(30 32)
(33 31)
(32 34)
(35 33)
(34 36)
(37 35)
(36 38)
(39 37)
(38 40)
(41 39)
(40 42)
(43 41)
(42 44)
(45 43)
(44 46)
(47 45)
(46 48)
(49 47)
(48 50)
(51 49)
(52 51)
(50 53)
(54 52)
(53 55)
(55 56)
(57 54)
(58 57)
(56 59)
(60 58)
(59 61)
(62 60)
(61 63)
(64 62)
(63 65)
(66 64)
(65 67)
(68 66)
(67 69)
(69 70)
(71 68)
(70 72)
(73 71)
(72 74)
(74 75)
(76 73)
(77 76)
(75 78)
(79 77)
(78 80)
(81 79)
(80 82)
(83 81)
(82 84)
(85 83)
(84 86)
(86 87)
(88 85)
(87 89)
(90 88)
(91 90)
(89 92)
(92 0)
(93 91)
(3 93)
)

// * * * * * * * * * * * * * * * * * * * * * * * * * * * * * * * * * * * * * //


// ************************************************************************* //
