/*--------------------------------*- C++ -*----------------------------------*\
| =========                 |                                                 |
| \\      /  F ield         | OpenFOAM: The Open Source CFD Toolbox           |
|  \\    /   O peration     | Version:  v2012                                 |
|   \\  /    A nd           | Website:  www.openfoam.com                      |
|    \\/     M anipulation  |                                                 |
\*---------------------------------------------------------------------------*/
FoamFile
{
    version     2.0;
    format      ascii;
    class       extendedFeatureEdgeMesh;
    location    "constant/extendedFeatureEdgeMesh";
    object      baffle_HD0.45.extendedFeatureEdgeMesh;
}
// * * * * * * * * * * * * * * * * * * * * * * * * * * * * * * * * * * * * * //

// points

652
(
(0.152484 0.104 -0.000623074)
(0.1525 0.104 -1.07051e-17)
(0.152438 0.104 -0.0012446)
(0.15236 0.104 -0.00186303)
(0.152252 0.104 -0.00247683)
(0.152113 0.104 -0.00308447)
(0.151945 0.104 -0.00368444)
(0.151746 0.104 -0.00427525)
(0.151518 0.104 -0.00485543)
(0.151262 0.104 -0.00542355)
(0.150978 0.104 -0.00597817)
(0.150666 0.104 -0.00651794)
(0.150328 0.104 -0.0070415)
(0.149964 0.104 -0.00754755)
(0.149576 0.104 -0.00803485)
(0.149163 0.104 -0.00850216)
(0.148728 0.104 -0.00894834)
(0.148271 0.104 -0.00937226)
(0.147794 0.104 -0.00977289)
(0.147297 0.104 -0.0101492)
(0.146782 0.104 -0.0105003)
(0.14625 0.104 -0.0108253)
(0.145703 0.104 -0.0111234)
(0.145141 0.104 -0.0113938)
(0.144567 0.104 -0.0116359)
(0.143981 0.104 -0.0118491)
(0.143386 0.104 -0.0120328)
(0.142782 0.104 -0.0121866)
(0.142171 0.104 -0.0123101)
(0.141554 0.104 -0.012403)
(0.140934 0.104 -0.012465)
(0.140312 0.104 -0.0124961)
(0.139688 0.104 -0.0124961)
(0.139066 0.104 -0.012465)
(0.138446 0.104 -0.012403)
(0.137829 0.104 -0.0123101)
(0.137218 0.104 -0.0121866)
(0.136614 0.104 -0.0120328)
(0.136019 0.104 -0.0118491)
(0.135433 0.104 -0.0116359)
(0.134859 0.104 -0.0113938)
(0.134297 0.104 -0.0111234)
(0.13375 0.104 -0.0108253)
(0.133218 0.104 -0.0105003)
(0.132703 0.104 -0.0101492)
(0.132206 0.104 -0.00977289)
(0.131729 0.104 -0.00937226)
(0.131272 0.104 -0.00894834)
(0.130837 0.104 -0.00850216)
(0.130424 0.104 -0.00803485)
(0.130036 0.104 -0.00754755)
(0.129672 0.104 -0.0070415)
(0.129022 0.104 -0.00597817)
(0.129334 0.104 -0.00651794)
(0.128738 0.104 -0.00542355)
(0.128482 0.104 -0.00485543)
(0.128254 0.104 -0.00427525)
(0.128055 0.104 -0.00368444)
(0.127887 0.104 -0.00308447)
(0.127748 0.104 -0.00247683)
(0.12764 0.104 -0.00186303)
(0.127562 0.104 -0.0012446)
(0.127516 0.104 -0.000623074)
(0.1275 0.104 2.91113e-17)
(0.127516 0.104 0.000623074)
(0.127562 0.104 0.0012446)
(0.12764 0.104 0.00186303)
(0.127748 0.104 0.00247683)
(0.127887 0.104 0.00308447)
(0.128055 0.104 0.00368444)
(0.128254 0.104 0.00427525)
(0.128482 0.104 0.00485543)
(0.128738 0.104 0.00542355)
(0.129022 0.104 0.00597817)
(0.129334 0.104 0.00651794)
(0.129672 0.104 0.0070415)
(0.130036 0.104 0.00754755)
(0.130424 0.104 0.00803485)
(0.130837 0.104 0.00850216)
(0.131272 0.104 0.00894834)
(0.131729 0.104 0.00937226)
(0.132206 0.104 0.00977289)
(0.132703 0.104 0.0101492)
(0.133218 0.104 0.0105003)
(0.13375 0.104 0.0108253)
(0.134297 0.104 0.0111234)
(0.134859 0.104 0.0113938)
(0.135433 0.104 0.0116359)
(0.136019 0.104 0.0118491)
(0.136614 0.104 0.0120328)
(0.137218 0.104 0.0121866)
(0.137829 0.104 0.0123101)
(0.138446 0.104 0.012403)
(0.139066 0.104 0.012465)
(0.139688 0.104 0.0124961)
(0.140312 0.104 0.0124961)
(0.140934 0.104 0.012465)
(0.141554 0.104 0.012403)
(0.142171 0.104 0.0123101)
(0.142782 0.104 0.0121866)
(0.143386 0.104 0.0120328)
(0.143981 0.104 0.0118491)
(0.144567 0.104 0.0116359)
(0.145141 0.104 0.0113938)
(0.145703 0.104 0.0111234)
(0.14625 0.104 0.0108253)
(0.146782 0.104 0.0105003)
(0.147297 0.104 0.0101492)
(0.147794 0.104 0.00977289)
(0.148271 0.104 0.00937226)
(0.148728 0.104 0.00894834)
(0.149163 0.104 0.00850216)
(0.149576 0.104 0.00803485)
(0.149964 0.104 0.00754755)
(0.150328 0.104 0.0070415)
(0.150666 0.104 0.00651794)
(0.150978 0.104 0.00597817)
(0.151262 0.104 0.00542355)
(0.151518 0.104 0.00485543)
(0.151746 0.104 0.00427525)
(0.151945 0.104 0.00368444)
(0.152113 0.104 0.00308447)
(0.152252 0.104 0.00247683)
(0.15236 0.104 0.00186303)
(0.152438 0.104 0.0012446)
(0.152484 0.104 0.000623074)
(0.0575 0.104 -0.006)
(0.0794252 0.104 -0.006)
(0.0832003 0.104 -0.00591392)
(0.0854674 0.104 -0.00577691)
(0.0813133 0.104 -0.00597858)
(0.0832127 0.104 0.00591335)
(0.0794252 0.104 0.006)
(0.0997142 0.104 -0.00252506)
(0.0999695 0.104 -0.00237189)
(0.0994215 0.104 -0.00268788)
(0.0991237 0.104 -0.00284171)
(0.0987204 0.104 -0.00303433)
(0.0982595 0.104 -0.003236)
(0.0977927 0.104 -0.00342368)
(0.0971627 0.104 -0.00365491)
(0.0964459 0.104 -0.00389249)
(0.0954799 0.104 -0.00417741)
(0.0878647 0.104 -0.00555646)
(0.0999041 0.104 0.00241224)
(0.0994915 0.104 0.00265003)
(0.0989679 0.104 0.00291809)
(0.0983724 0.104 0.00318822)
(0.0977037 0.104 0.00345779)
(0.0967161 0.104 0.00380583)
(0.0955575 0.104 0.00415585)
(0.0869915 0.104 0.00564625)
(0.0943827 0.104 -0.00446089)
(0.0932771 0.104 -0.0047108)
(0.0917933 0.104 -0.00499915)
(0.0901144 0.104 -0.00527042)
(0.093885 0.104 0.00457745)
(0.0925436 0.104 0.00485956)
(0.0900227 0.104 0.00528373)
(0.0575 0.104 0.006)
(0.0573004 0.104 -0.00597988)
(0.0573411 0.104 -0.00598729)
(0.0573814 0.104 -0.00599295)
(0.0574214 0.104 -0.00599691)
(0.057461 0.104 -0.00599924)
(0.0572597 0.104 -0.00597069)
(0.0571375 0.104 -0.00593199)
(0.0571781 0.104 -0.00594676)
(0.0572188 0.104 -0.00595966)
(0.0569054 0.104 -0.00580401)
(0.0569421 0.104 -0.0058299)
(0.0569798 0.104 -0.00585402)
(0.0568353 0.104 -0.00574715)
(0.0568698 0.104 -0.00577641)
(0.0567118 0.104 -0.00561544)
(0.0567404 0.104 -0.00565037)
(0.0566364 0.104 -0.00550419)
(0.0566598 0.104 -0.00554222)
(0.0566849 0.104 -0.00557935)
(0.0565252 0.104 -0.00522324)
(0.0565355 0.104 -0.00526406)
(0.0565476 0.104 -0.00530486)
(0.0565616 0.104 -0.00534552)
(0.0565168 0.104 -0.00518251)
(0.0565 0.104 -0.005)
(0.0565012 0.104 -0.00504826)
(0.0565047 0.104 -0.0050973)
(0.0565101 0.104 -0.00514197)
(0.0570183 0.104 -0.00587632)
(0.0570575 0.104 -0.00589676)
(0.0570973 0.104 -0.00591532)
(0.0567706 0.104 -0.00568404)
(0.0568022 0.104 -0.00571634)
(0.0565775 0.104 -0.0053859)
(0.0565952 0.104 -0.0054259)
(0.0566149 0.104 -0.00546537)
(0.0568353 0.104 0.00574715)
(0.0568698 0.104 0.00577641)
(0.0568022 0.104 0.00571634)
(0.0567118 0.104 0.00561544)
(0.0567404 0.104 0.00565037)
(0.0567706 0.104 0.00568404)
(0.0569054 0.104 0.00580401)
(0.0566849 0.104 0.00557935)
(0.0569421 0.104 0.0058299)
(0.0569798 0.104 0.00585402)
(0.0570183 0.104 0.00587632)
(0.0566364 0.104 0.00550419)
(0.0566598 0.104 0.00554222)
(0.0566149 0.104 0.00546537)
(0.0570575 0.104 0.00589676)
(0.0565952 0.104 0.0054259)
(0.0570973 0.104 0.00591532)
(0.0571375 0.104 0.00593199)
(0.0571781 0.104 0.00594676)
(0.0572188 0.104 0.00595966)
(0.0565355 0.104 0.00526406)
(0.0565476 0.104 0.00530486)
(0.0565616 0.104 0.00534552)
(0.0565775 0.104 0.0053859)
(0.0572597 0.104 0.00597069)
(0.0565252 0.104 0.00522324)
(0.0565047 0.104 0.0050973)
(0.0565101 0.104 0.00514197)
(0.0565168 0.104 0.00518251)
(0.0573004 0.104 0.00597988)
(0.0573411 0.104 0.00598729)
(0.0573814 0.104 0.00599295)
(0.0574214 0.104 0.00599691)
(0.0565012 0.104 0.00504826)
(0.057461 0.104 0.00599924)
(0.0565 0.104 0.005)
(0.142497 0.022 -0.000124615)
(0.1425 0.022 -7.15924e-18)
(0.142488 0.022 -0.00024892)
(0.142472 0.022 -0.000372606)
(0.14245 0.022 -0.000495365)
(0.142423 0.022 -0.000616893)
(0.142389 0.022 -0.000736888)
(0.142349 0.022 -0.00085505)
(0.142304 0.022 -0.000971087)
(0.142252 0.022 -0.00108471)
(0.142196 0.022 -0.00119563)
(0.142133 0.022 -0.00130359)
(0.142066 0.022 -0.0014083)
(0.141993 0.022 -0.00150951)
(0.141915 0.022 -0.00160697)
(0.141833 0.022 -0.00170043)
(0.141746 0.022 -0.00178967)
(0.141654 0.022 -0.00187445)
(0.141559 0.022 -0.00195458)
(0.141459 0.022 -0.00202984)
(0.141356 0.022 -0.00210006)
(0.14125 0.022 -0.00216506)
(0.141141 0.022 -0.00222468)
(0.141028 0.022 -0.00227876)
(0.140913 0.022 -0.00232718)
(0.140796 0.022 -0.00236982)
(0.140677 0.022 -0.00240656)
(0.140556 0.022 -0.00243732)
(0.140434 0.022 -0.00246202)
(0.140311 0.022 -0.0024806)
(0.140187 0.022 -0.00249301)
(0.140062 0.022 -0.00249922)
(0.139938 0.022 -0.00249922)
(0.139813 0.022 -0.00249301)
(0.139689 0.022 -0.0024806)
(0.139566 0.022 -0.00246202)
(0.139444 0.022 -0.00243732)
(0.139323 0.022 -0.00240656)
(0.139204 0.022 -0.00236982)
(0.139087 0.022 -0.00232718)
(0.138972 0.022 -0.00227876)
(0.138859 0.022 -0.00222468)
(0.13875 0.022 -0.00216506)
(0.138644 0.022 -0.00210006)
(0.138541 0.022 -0.00202984)
(0.138441 0.022 -0.00195458)
(0.138346 0.022 -0.00187445)
(0.138254 0.022 -0.00178967)
(0.138167 0.022 -0.00170043)
(0.138085 0.022 -0.00160697)
(0.138007 0.022 -0.00150951)
(0.137934 0.022 -0.0014083)
(0.137867 0.022 -0.00130359)
(0.137804 0.022 -0.00119563)
(0.137748 0.022 -0.00108471)
(0.137696 0.022 -0.000971087)
(0.137651 0.022 -0.00085505)
(0.137611 0.022 -0.000736888)
(0.137577 0.022 -0.000616893)
(0.13755 0.022 -0.000495365)
(0.137528 0.022 -0.000372606)
(0.137512 0.022 -0.00024892)
(0.137503 0.022 -0.000124615)
(0.1375 0.022 8.04061e-19)
(0.137503 0.022 0.000124615)
(0.137512 0.022 0.00024892)
(0.137528 0.022 0.000372606)
(0.13755 0.022 0.000495365)
(0.137577 0.022 0.000616893)
(0.137611 0.022 0.000736888)
(0.137651 0.022 0.00085505)
(0.137696 0.022 0.000971087)
(0.137748 0.022 0.00108471)
(0.137804 0.022 0.00119563)
(0.137867 0.022 0.00130359)
(0.137934 0.022 0.0014083)
(0.138007 0.022 0.00150951)
(0.138085 0.022 0.00160697)
(0.138167 0.022 0.00170043)
(0.138254 0.022 0.00178967)
(0.138346 0.022 0.00187445)
(0.138441 0.022 0.00195458)
(0.138541 0.022 0.00202984)
(0.138644 0.022 0.00210006)
(0.13875 0.022 0.00216506)
(0.138859 0.022 0.00222468)
(0.138972 0.022 0.00227876)
(0.139087 0.022 0.00232718)
(0.139204 0.022 0.00236982)
(0.139323 0.022 0.00240656)
(0.139444 0.022 0.00243732)
(0.139566 0.022 0.00246202)
(0.139689 0.022 0.0024806)
(0.139813 0.022 0.00249301)
(0.139938 0.022 0.00249922)
(0.140062 0.022 0.00249922)
(0.140187 0.022 0.00249301)
(0.140311 0.022 0.0024806)
(0.140434 0.022 0.00246202)
(0.140556 0.022 0.00243732)
(0.140677 0.022 0.00240656)
(0.140796 0.022 0.00236982)
(0.140913 0.022 0.00232718)
(0.141028 0.022 0.00227876)
(0.141141 0.022 0.00222468)
(0.14125 0.022 0.00216506)
(0.141356 0.022 0.00210006)
(0.141459 0.022 0.00202984)
(0.141559 0.022 0.00195458)
(0.141654 0.022 0.00187445)
(0.141746 0.022 0.00178967)
(0.141833 0.022 0.00170043)
(0.141915 0.022 0.00160697)
(0.141993 0.022 0.00150951)
(0.142066 0.022 0.0014083)
(0.142133 0.022 0.00130359)
(0.142196 0.022 0.00119563)
(0.142252 0.022 0.00108471)
(0.142304 0.022 0.000971087)
(0.142349 0.022 0.00085505)
(0.142389 0.022 0.000736888)
(0.142423 0.022 0.000616893)
(0.14245 0.022 0.000495365)
(0.142472 0.022 0.000372606)
(0.142488 0.022 0.00024892)
(0.142497 0.022 0.000124615)
(0.149988 0.042 -0.000498459)
(0.15 0.042 -1.9916e-18)
(0.14995 0.042 -0.000995678)
(0.149888 0.042 -0.00149042)
(0.149802 0.042 -0.00198146)
(0.149691 0.042 -0.00246757)
(0.149556 0.042 -0.00294755)
(0.149397 0.042 -0.0034202)
(0.149215 0.042 -0.00388435)
(0.14901 0.042 -0.00433884)
(0.148782 0.042 -0.00478254)
(0.148533 0.042 -0.00521435)
(0.148262 0.042 -0.0056332)
(0.147971 0.042 -0.00603804)
(0.14766 0.042 -0.00642788)
(0.147331 0.042 -0.00680173)
(0.146982 0.042 -0.00715867)
(0.146617 0.042 -0.00749781)
(0.146235 0.042 -0.00781832)
(0.145837 0.042 -0.00811938)
(0.145425 0.042 -0.00840026)
(0.145 0.042 -0.00866025)
(0.144562 0.042 -0.00889872)
(0.144113 0.042 -0.00911506)
(0.143653 0.042 -0.00930874)
(0.143185 0.042 -0.00947927)
(0.142708 0.042 -0.00962624)
(0.142225 0.042 -0.00974928)
(0.141736 0.042 -0.00984808)
(0.141243 0.042 -0.00992239)
(0.140747 0.042 -0.00997204)
(0.140249 0.042 -0.00999689)
(0.139751 0.042 -0.00999689)
(0.139253 0.042 -0.00997204)
(0.138757 0.042 -0.00992239)
(0.138264 0.042 -0.00984808)
(0.137775 0.042 -0.00974928)
(0.137292 0.042 -0.00962624)
(0.136815 0.042 -0.00947927)
(0.136347 0.042 -0.00930874)
(0.135887 0.042 -0.00911506)
(0.135438 0.042 -0.00889872)
(0.135 0.042 -0.00866025)
(0.134575 0.042 -0.00840026)
(0.134163 0.042 -0.00811938)
(0.133765 0.042 -0.00781832)
(0.133383 0.042 -0.00749781)
(0.133018 0.042 -0.00715867)
(0.132669 0.042 -0.00680173)
(0.13234 0.042 -0.00642788)
(0.132029 0.042 -0.00603804)
(0.131738 0.042 -0.0056332)
(0.131467 0.042 -0.00521435)
(0.131218 0.042 -0.00478254)
(0.13099 0.042 -0.00433884)
(0.130785 0.042 -0.00388435)
(0.130603 0.042 -0.0034202)
(0.130444 0.042 -0.00294755)
(0.130309 0.042 -0.00246757)
(0.130198 0.042 -0.00198146)
(0.130112 0.042 -0.00149042)
(0.13005 0.042 -0.000995678)
(0.130012 0.042 -0.000498459)
(0.13 0.042 2.98616e-17)
(0.130012 0.042 0.000498459)
(0.13005 0.042 0.000995678)
(0.130112 0.042 0.00149042)
(0.130198 0.042 0.00198146)
(0.130309 0.042 0.00246757)
(0.130444 0.042 0.00294755)
(0.130603 0.042 0.0034202)
(0.130785 0.042 0.00388435)
(0.13099 0.042 0.00433884)
(0.131218 0.042 0.00478254)
(0.131467 0.042 0.00521435)
(0.131738 0.042 0.0056332)
(0.132029 0.042 0.00603804)
(0.13234 0.042 0.00642788)
(0.132669 0.042 0.00680173)
(0.133018 0.042 0.00715867)
(0.133383 0.042 0.00749781)
(0.133765 0.042 0.00781832)
(0.134163 0.042 0.00811938)
(0.134575 0.042 0.00840026)
(0.135 0.042 0.00866025)
(0.135438 0.042 0.00889872)
(0.135887 0.042 0.00911506)
(0.136347 0.042 0.00930874)
(0.136815 0.042 0.00947927)
(0.137292 0.042 0.00962624)
(0.137775 0.042 0.00974928)
(0.138264 0.042 0.00984808)
(0.138757 0.042 0.00992239)
(0.139253 0.042 0.00997204)
(0.139751 0.042 0.00999689)
(0.140249 0.042 0.00999689)
(0.140747 0.042 0.00997204)
(0.141243 0.042 0.00992239)
(0.141736 0.042 0.00984808)
(0.142225 0.042 0.00974928)
(0.142708 0.042 0.00962624)
(0.143185 0.042 0.00947927)
(0.143653 0.042 0.00930874)
(0.144113 0.042 0.00911506)
(0.144562 0.042 0.00889872)
(0.145 0.042 0.00866025)
(0.145425 0.042 0.00840026)
(0.145837 0.042 0.00811938)
(0.146235 0.042 0.00781832)
(0.146617 0.042 0.00749781)
(0.146982 0.042 0.00715867)
(0.147331 0.042 0.00680173)
(0.14766 0.042 0.00642788)
(0.147971 0.042 0.00603804)
(0.148262 0.042 0.0056332)
(0.148533 0.042 0.00521435)
(0.148782 0.042 0.00478254)
(0.14901 0.042 0.00433884)
(0.149215 0.042 0.00388435)
(0.149397 0.042 0.0034202)
(0.149556 0.042 0.00294755)
(0.149691 0.042 0.00246757)
(0.149802 0.042 0.00198146)
(0.149888 0.042 0.00149042)
(0.14995 0.042 0.000995678)
(0.149988 0.042 0.000498459)
(0.129034 0.0906917 -0.006)
(0.129033 0.0908332 -0.00599834)
(0.129031 0.0909747 -0.00599337)
(0.129024 0.0911696 -0.00598116)
(0.129014 0.0913643 -0.0059628)
(0.129001 0.0915585 -0.00593837)
(0.128984 0.0917522 -0.00590793)
(0.128965 0.0919452 -0.00587155)
(0.128942 0.0921375 -0.00582927)
(0.128917 0.0923289 -0.00578114)
(0.129034 0.0791917 -0.006)
(0.128889 0.0925193 -0.00572719)
(0.128859 0.0927086 -0.00566744)
(0.129032 0.0789538 -0.00599525)
(0.128826 0.0928968 -0.00560192)
(0.12879 0.0930836 -0.00553061)
(0.128752 0.0932691 -0.00545354)
(0.128713 0.0934531 -0.00537067)
(0.128671 0.0936354 -0.00528196)
(0.128627 0.093816 -0.00518738)
(0.128582 0.0939949 -0.00508687)
(0.129024 0.0787161 -0.00598089)
(0.129011 0.078479 -0.00595675)
(0.128992 0.0782426 -0.00592264)
(0.128968 0.0780074 -0.00587838)
(0.12894 0.0777736 -0.00582377)
(0.128905 0.0775415 -0.00575863)
(0.128866 0.0773116 -0.00568277)
(0.128535 0.0941717 -0.00498037)
(0.128487 0.0943464 -0.00486778)
(0.128437 0.0945188 -0.00474904)
(0.128387 0.0946888 -0.00462402)
(0.128335 0.0948562 -0.00449262)
(0.128823 0.077084 -0.005596)
(0.128774 0.0768593 -0.00549814)
(0.128721 0.0766377 -0.00538901)
(0.128665 0.0764197 -0.00526844)
(0.128604 0.0762057 -0.00513625)
(0.128283 0.0950208 -0.00435469)
(0.12823 0.0951823 -0.00421008)
(0.128177 0.0953406 -0.00405863)
(0.128124 0.0954953 -0.00390019)
(0.12854 0.075996 -0.0049923)
(0.128474 0.0757912 -0.00483642)
(0.128405 0.0755917 -0.00466851)
(0.128334 0.075398 -0.00448845)
(0.128071 0.0956462 -0.00373459)
(0.128018 0.0957928 -0.00356163)
(0.127966 0.0959349 -0.00338116)
(0.128261 0.0752106 -0.00429617)
(0.128189 0.0750301 -0.00409161)
(0.128116 0.0748571 -0.00387477)
(0.127915 0.0960719 -0.00319299)
(0.127865 0.0962034 -0.00299698)
(0.127821 0.0963152 -0.00281604)
(0.12779 0.0963957 -0.00267616)
(0.128043 0.0746921 -0.00364569)
(0.127973 0.0745359 -0.00340446)
(0.127759 0.096473 -0.00253268)
(0.12773 0.096547 -0.00238559)
(0.127701 0.0966175 -0.00223492)
(0.127674 0.0966842 -0.0020807)
(0.127904 0.0743892 -0.00315127)
(0.127844 0.0742657 -0.00291341)
(0.127793 0.0741622 -0.00269149)
(0.127649 0.0967469 -0.00192299)
(0.127625 0.0968053 -0.00176188)
(0.127603 0.0968592 -0.00159749)
(0.127582 0.0969084 -0.00142997)
(0.127745 0.0740662 -0.00246242)
(0.1277 0.0739781 -0.00222652)
(0.127564 0.0969525 -0.00125953)
(0.127547 0.0969914 -0.00108639)
(0.127533 0.0970248 -0.000910836)
(0.127658 0.0738984 -0.00198421)
(0.127621 0.0738274 -0.00173596)
(0.127589 0.0737662 -0.001485)
(0.127522 0.0970526 -0.00073318)
(0.127512 0.0970744 -0.000553792)
(0.127506 0.0970902 -0.000373064)
(0.127501 0.0970998 -0.000191415)
(0.127561 0.0737148 -0.00123209)
(0.127538 0.0736729 -0.0009753)
(0.1275 0.0971033 -9.28822e-06)
(0.127501 0.0971005 0.00017286)
(0.127505 0.0970915 0.000354579)
(0.12752 0.0736406 -0.000715378)
(0.127508 0.0736182 -0.00045312)
(0.127501 0.0736059 -0.000189364)
(0.127511 0.0970763 0.000535421)
(0.12752 0.0970551 0.000714963)
(0.127532 0.0970279 0.000892812)
(0.127546 0.0969951 0.0010686)
(0.1275 0.0736037 7.50236e-05)
(0.127505 0.0736117 0.00033917)
(0.127562 0.0969565 0.00124314)
(0.127587 0.0968971 0.00147012)
(0.127615 0.096829 0.00169181)
(0.127515 0.0736297 0.000602188)
(0.12753 0.0736577 0.000863224)
(0.127646 0.0967526 0.00190778)
(0.127685 0.0966589 0.00214068)
(0.12755 0.0736955 0.00112147)
(0.127576 0.0737429 0.00137616)
(0.127606 0.0737995 0.00162658)
(0.127731 0.0965447 0.0023904)
(0.12778 0.0964209 0.00263041)
(0.127832 0.0962885 0.00286066)
(0.127641 0.073865 0.0018721)
(0.12768 0.0739391 0.00211216)
(0.127886 0.0961482 0.00308122)
(0.127948 0.0959842 0.00331509)
(0.127722 0.0740215 0.00234628)
(0.127768 0.0741116 0.00257405)
(0.127817 0.0742092 0.0027951)
(0.128018 0.095793 0.00356145)
(0.12809 0.0955933 0.003794)
(0.128162 0.0953861 0.00401319)
(0.127868 0.0743138 0.00300917)
(0.127921 0.0744251 0.00321601)
(0.127976 0.0745427 0.00341547)
(0.128234 0.0951722 0.00421945)
(0.128305 0.0949523 0.00441318)
(0.128375 0.0947271 0.00459476)
(0.128032 0.0746662 0.00360739)
(0.128089 0.0747952 0.00379167)
(0.128147 0.0749295 0.00396827)
(0.128444 0.0944969 0.00476456)
(0.12851 0.0942623 0.00492288)
(0.128574 0.0940237 0.00506997)
(0.128636 0.0937815 0.00520602)
(0.128204 0.0750687 0.00413715)
(0.128262 0.0752126 0.0042983)
(0.12832 0.0753607 0.00445173)
(0.128376 0.0755129 0.00459745)
(0.128694 0.0935359 0.00533121)
(0.128749 0.0932872 0.00544566)
(0.128799 0.0930358 0.00554947)
(0.128846 0.0927819 0.00564267)
(0.128888 0.0925257 0.00572527)
(0.128432 0.0756689 0.00473551)
(0.128486 0.0758285 0.00486596)
(0.128539 0.0759913 0.00498884)
(0.12859 0.0761571 0.00510422)
(0.128926 0.0922675 0.00579723)
(0.128958 0.0920076 0.00585849)
(0.128985 0.0917462 0.00590896)
(0.129006 0.0914837 0.0059485)
(0.129022 0.0912202 0.00597698)
(0.129031 0.0909561 0.00599421)
(0.129034 0.0906917 0.006)
(0.129034 0.0791917 0.006)
(0.128639 0.0763258 0.00521217)
(0.128685 0.0764971 0.00531276)
(0.128729 0.0766707 0.00540609)
(0.128771 0.0768466 0.00549223)
(0.12881 0.0770245 0.00557128)
(0.128846 0.0772042 0.00564332)
(0.12888 0.0773856 0.00570844)
(0.12891 0.0775684 0.00576674)
(0.128937 0.0777525 0.0058183)
(0.12896 0.0779377 0.00586322)
(0.128981 0.0781239 0.0059016)
(0.128998 0.0783108 0.00593354)
(0.129012 0.0784984 0.00595911)
(0.129022 0.0786865 0.00597843)
(0.12903 0.078875 0.00599157)
(0.129033 0.0790333 0.0059979)
)

// edges

651
(
(0 1)
(2 0)
(3 2)
(4 3)
(5 4)
(6 5)
(7 6)
(8 7)
(9 8)
(10 9)
(11 10)
(12 11)
(13 12)
(14 13)
(15 14)
(16 15)
(17 16)
(18 17)
(19 18)
(20 19)
(21 20)
(22 21)
(23 22)
(24 23)
(25 24)
(26 25)
(27 26)
(28 27)
(29 28)
(30 29)
(31 30)
(32 31)
(33 32)
(34 33)
(35 34)
(36 35)
(37 36)
(38 37)
(39 38)
(40 39)
(41 40)
(42 41)
(43 42)
(44 43)
(45 44)
(46 45)
(47 46)
(48 47)
(49 48)
(50 49)
(51 50)
(52 53)
(54 52)
(53 51)
(55 54)
(56 55)
(57 56)
(58 57)
(59 58)
(60 59)
(61 60)
(62 61)
(63 62)
(64 63)
(65 64)
(66 65)
(67 66)
(68 67)
(69 68)
(70 69)
(71 70)
(72 71)
(73 72)
(74 73)
(75 74)
(76 75)
(77 76)
(78 77)
(79 78)
(80 79)
(81 80)
(82 81)
(83 82)
(84 83)
(85 84)
(86 85)
(87 86)
(88 87)
(89 88)
(90 89)
(91 90)
(92 91)
(93 92)
(94 93)
(95 94)
(96 95)
(97 96)
(98 97)
(99 98)
(100 99)
(101 100)
(102 101)
(103 102)
(104 103)
(105 104)
(106 105)
(107 106)
(108 107)
(109 108)
(110 109)
(111 110)
(112 111)
(113 112)
(114 113)
(115 114)
(116 115)
(117 116)
(118 117)
(119 118)
(120 119)
(121 120)
(122 121)
(123 122)
(124 123)
(125 124)
(1 125)
(126 127)
(128 129)
(130 128)
(127 130)
(131 132)
(133 134)
(135 133)
(136 135)
(137 136)
(138 137)
(139 138)
(140 139)
(141 140)
(142 141)
(129 143)
(144 145)
(145 146)
(146 147)
(147 148)
(148 149)
(149 150)
(151 131)
(152 142)
(153 152)
(154 153)
(155 154)
(143 155)
(150 156)
(156 157)
(157 158)
(158 151)
(132 159)
(160 161)
(161 162)
(162 163)
(163 164)
(164 126)
(165 160)
(166 167)
(167 168)
(168 165)
(169 170)
(170 171)
(172 173)
(173 169)
(174 175)
(176 177)
(177 178)
(178 174)
(179 180)
(180 181)
(181 182)
(183 179)
(184 185)
(185 186)
(186 187)
(187 183)
(171 188)
(188 189)
(189 190)
(190 166)
(175 191)
(191 192)
(192 172)
(182 193)
(193 194)
(194 195)
(195 176)
(196 197)
(198 196)
(199 200)
(200 201)
(201 198)
(197 202)
(203 199)
(204 205)
(205 206)
(207 208)
(209 207)
(208 203)
(202 204)
(206 210)
(211 209)
(210 212)
(213 214)
(214 215)
(216 217)
(217 218)
(218 219)
(212 213)
(215 220)
(219 211)
(221 216)
(222 223)
(223 224)
(225 226)
(226 227)
(227 228)
(229 222)
(224 221)
(228 230)
(220 225)
(231 229)
(230 159)
(184 231)
(232 233)
(234 232)
(235 234)
(236 235)
(237 236)
(238 237)
(239 238)
(240 239)
(241 240)
(242 241)
(243 242)
(244 243)
(245 244)
(246 245)
(247 246)
(248 247)
(249 248)
(250 249)
(251 250)
(252 251)
(253 252)
(254 253)
(255 254)
(256 255)
(257 256)
(258 257)
(259 258)
(260 259)
(261 260)
(262 261)
(263 262)
(264 263)
(265 264)
(266 265)
(267 266)
(268 267)
(269 268)
(270 269)
(271 270)
(272 271)
(273 272)
(274 273)
(275 274)
(276 275)
(277 276)
(278 277)
(279 278)
(280 279)
(281 280)
(282 281)
(283 282)
(284 283)
(285 284)
(286 285)
(287 286)
(288 287)
(289 288)
(290 289)
(291 290)
(292 291)
(293 292)
(294 293)
(295 294)
(296 295)
(297 296)
(298 297)
(299 298)
(300 299)
(301 300)
(302 301)
(303 302)
(304 303)
(305 304)
(306 305)
(307 306)
(308 307)
(309 308)
(310 309)
(311 310)
(312 311)
(313 312)
(314 313)
(315 314)
(316 315)
(317 316)
(318 317)
(319 318)
(320 319)
(321 320)
(322 321)
(323 322)
(324 323)
(325 324)
(326 325)
(327 326)
(328 327)
(329 328)
(330 329)
(331 330)
(332 331)
(333 332)
(334 333)
(335 334)
(336 335)
(337 336)
(338 337)
(339 338)
(340 339)
(341 340)
(342 341)
(343 342)
(344 343)
(345 344)
(346 345)
(347 346)
(348 347)
(349 348)
(350 349)
(351 350)
(352 351)
(353 352)
(354 353)
(355 354)
(356 355)
(357 356)
(233 357)
(358 359)
(360 358)
(361 360)
(362 361)
(363 362)
(364 363)
(365 364)
(366 365)
(367 366)
(368 367)
(369 368)
(370 369)
(371 370)
(372 371)
(373 372)
(374 373)
(375 374)
(376 375)
(377 376)
(378 377)
(379 378)
(380 379)
(381 380)
(382 381)
(383 382)
(384 383)
(385 384)
(386 385)
(387 386)
(388 387)
(389 388)
(390 389)
(391 390)
(392 391)
(393 392)
(394 393)
(395 394)
(396 395)
(397 396)
(398 397)
(399 398)
(400 399)
(401 400)
(402 401)
(403 402)
(404 403)
(405 404)
(406 405)
(407 406)
(408 407)
(409 408)
(410 409)
(411 410)
(412 411)
(413 412)
(414 413)
(415 414)
(416 415)
(417 416)
(418 417)
(419 418)
(420 419)
(421 420)
(422 421)
(423 422)
(424 423)
(425 424)
(426 425)
(427 426)
(428 427)
(429 428)
(430 429)
(431 430)
(432 431)
(433 432)
(434 433)
(435 434)
(436 435)
(437 436)
(438 437)
(439 438)
(440 439)
(441 440)
(442 441)
(443 442)
(444 443)
(445 444)
(446 445)
(447 446)
(448 447)
(449 448)
(450 449)
(451 450)
(452 451)
(453 452)
(454 453)
(455 454)
(456 455)
(457 456)
(458 457)
(459 458)
(460 459)
(461 460)
(462 461)
(463 462)
(464 463)
(465 464)
(466 465)
(467 466)
(468 467)
(469 468)
(470 469)
(471 470)
(472 471)
(473 472)
(474 473)
(475 474)
(476 475)
(477 476)
(478 477)
(479 478)
(480 479)
(481 480)
(482 481)
(483 482)
(359 483)
(484 485)
(485 486)
(486 487)
(487 488)
(488 489)
(489 490)
(490 491)
(491 492)
(492 493)
(494 484)
(493 495)
(495 496)
(497 494)
(496 498)
(498 499)
(499 500)
(500 501)
(501 502)
(502 503)
(503 504)
(505 497)
(506 505)
(507 506)
(508 507)
(509 508)
(510 509)
(511 510)
(504 512)
(512 513)
(513 514)
(514 515)
(515 516)
(517 511)
(518 517)
(519 518)
(520 519)
(521 520)
(516 522)
(522 523)
(523 524)
(524 525)
(526 521)
(527 526)
(528 527)
(529 528)
(525 530)
(530 531)
(531 532)
(533 529)
(534 533)
(535 534)
(532 536)
(536 537)
(537 538)
(538 539)
(540 535)
(541 540)
(539 542)
(542 543)
(543 544)
(544 545)
(546 541)
(547 546)
(548 547)
(545 549)
(549 550)
(550 551)
(551 552)
(553 548)
(554 553)
(552 555)
(555 556)
(556 557)
(558 554)
(559 558)
(560 559)
(557 561)
(561 562)
(562 563)
(563 564)
(565 560)
(566 565)
(564 567)
(567 568)
(568 569)
(570 566)
(571 570)
(572 571)
(569 573)
(573 574)
(574 575)
(575 576)
(577 572)
(578 577)
(576 579)
(579 580)
(580 581)
(582 578)
(583 582)
(581 584)
(584 585)
(586 583)
(587 586)
(588 587)
(585 589)
(589 590)
(590 591)
(592 588)
(593 592)
(591 594)
(594 595)
(596 593)
(597 596)
(598 597)
(595 599)
(599 600)
(600 601)
(602 598)
(603 602)
(604 603)
(601 605)
(605 606)
(606 607)
(608 604)
(609 608)
(610 609)
(607 611)
(611 612)
(612 613)
(613 614)
(615 610)
(616 615)
(617 616)
(618 617)
(614 619)
(619 620)
(620 621)
(621 622)
(622 623)
(624 618)
(625 624)
(626 625)
(627 626)
(623 628)
(628 629)
(629 630)
(630 631)
(631 632)
(632 633)
(633 634)
(634 635)
(636 627)
(637 636)
(638 637)
(639 638)
(640 639)
(641 640)
(642 641)
(643 642)
(644 643)
(645 644)
(646 645)
(647 646)
(648 647)
(649 648)
(650 649)
(651 650)
(635 651)
)

// concaveStart mixedStart nonFeatureStart
0 0 0
// internalStart flatStart openStart multipleStart
231 651 651 651
// normals

1247
(
(0.99967 -4.41265e-18 -0.0256768)
(0 1 0)
(0.997272 0 -0.0738093)
(0 1 -0)
(0.992141 0 -0.125123)
(0 1 0)
(0.98487 0 -0.173297)
(0 1 -0)
(0.974821 0 -0.222991)
(0 1 0)
(0.962956 0 -0.269658)
(0 1 0)
(0.94769 0 -0.319191)
(0.930711 0 -0.365756)
(0 1 0)
(0.911712 0 -0.410829)
(0 1 0)
(0.89009 0 -0.455784)
(0.865773 0 -0.500438)
(0 1 0)
(0.840134 0 -0.542379)
(0.811812 0 -0.583919)
(0 1 0)
(0.782299 0 -0.622904)
(0.749307 0 -0.662223)
(0 1 0)
(0.716025 0 -0.698075)
(0.680072 0 -0.733146)
(0 1 0)
(0.643144 0 -0.765745)
(0 1 0)
(0.60365 0 -0.797249)
(0.563297 0 -0.826255)
(0 1 0)
(0.521319 0 -0.853362)
(0.478532 0 -0.87807)
(0 1 0)
(0.433567 0 -0.901121)
(0.388618 0 -0.921399)
(0 1 0)
(0.341896 0 -0.939738)
(0 1 0)
(0.295006 0 -0.955495)
(0.246759 0 -0.969077)
(0 1 0)
(0.198119 0 -0.980178)
(0 1 0)
(0.14889 0 -0.988854)
(0.0995049 0 -0.995037)
(0 1 0)
(0.0499367 0 -0.998752)
(-0 -0 -1)
(0 1 0)
(-0.0499367 0 -0.998752)
(0 1 0)
(-0.0995049 0 -0.995037)
(-0.14889 -0 -0.988854)
(0 1 0)
(-0.198119 0 -0.980178)
(0 1 0)
(-0.246759 -0 -0.969077)
(0 1 0)
(-0.295006 0 -0.955495)
(-0.341896 0 -0.939738)
(0 1 0)
(-0.388618 0 -0.921399)
(-0.433567 -0 -0.901121)
(0 1 0)
(-0.478532 0 -0.87807)
(-0.521319 0 -0.853362)
(0 1 0)
(-0.563297 -0 -0.826255)
(-0.603638 0 -0.797258)
(0 1 0)
(-0.643156 0 -0.765735)
(-0.680072 0 -0.733146)
(0 1 0)
(-0.716013 0 -0.698087)
(0 1 0)
(-0.749307 -0 -0.662223)
(0 1 0)
(-0.78231 0 -0.622889)
(-0.811812 -0 -0.583919)
(0 1 0)
(-0.865773 4.05265e-05 -0.500438)
(0 1 0)
(-0.89009 0.000306651 -0.455784)
(0 1 0)
(-0.840134 0 -0.542379)
(-0.911712 0.000390739 -0.410829)
(0 1 0)
(-0.930711 0.000405213 -0.365756)
(-0.94769 0.000409417 -0.319191)
(0 1 0)
(-0.962956 0.000486745 -0.269658)
(0 1 0)
(-0.97482 0.000582715 -0.222991)
(0 1 0)
(-0.98487 0.000591256 -0.173297)
(-0.992141 0.000487856 -0.125123)
(0 1 0)
(-0.997272 0.000614128 -0.0738093)
(-0.99967 0.000517513 -0.0256768)
(0 1 -0)
(-0.99967 0.000593375 0.0256768)
(-0.997272 0.000566397 0.0738093)
(0 1 0)
(-0.992141 0.000480095 0.125123)
(0 1 0)
(-0.98487 0.000516981 0.173297)
(0 1 0)
(-0.97482 0.000480804 0.222991)
(0 1 0)
(-0.962956 0.000429537 0.269658)
(0 1 0)
(-0.94769 0.000410995 0.319191)
(-0.930711 0.000458239 0.365756)
(0 1 0)
(-0.911712 0.000427204 0.410829)
(0 1 0)
(-0.89009 0.000349474 0.455784)
(0 1 0)
(-0.865773 4.05265e-05 0.500438)
(-0.840134 0 0.542379)
(0 1 0)
(-0.811812 0 0.583919)
(0 1 0)
(-0.78231 0 0.622889)
(-0.749307 0 0.662223)
(0 1 0)
(-0.716013 0 0.698087)
(0 1 0)
(-0.680072 0 0.733146)
(0 1 0)
(-0.643156 0 0.765735)
(-0.603638 0 0.797258)
(0 1 0)
(-0.563297 0 0.826255)
(-0.521319 0 0.853362)
(0 1 0)
(-0.478532 0 0.87807)
(0 1 0)
(-0.433567 0 0.901121)
(0 1 0)
(-0.388618 0 0.921399)
(-0.341896 0 0.939738)
(0 1 0)
(-0.295006 0 0.955495)
(0 1 0)
(-0.246759 0 0.969077)
(-0.198119 0 0.980178)
(0 1 0)
(-0.14889 0 0.988854)
(-0.0995049 0 0.995037)
(0 1 0)
(-0.0499367 0 0.998752)
(0 1 0)
(-0 0 1)
(0 1 0)
(0.0499367 0 0.998752)
(0 1 0)
(0.0995049 0 0.995037)
(0.14889 0 0.988854)
(0 1 0)
(0.198119 0 0.980178)
(0 1 0)
(0.246759 0 0.969077)
(0.295006 0 0.955495)
(0 1 0)
(0.341896 0 0.939738)
(0 1 0)
(0.388618 0 0.921399)
(0.433567 0 0.901121)
(0 1 0)
(0.478532 0 0.87807)
(0 1 0)
(0.521319 0 0.853362)
(0 1 0)
(0.563297 0 0.826255)
(0 1 0)
(0.60365 0 0.797249)
(0 1 0)
(0.643144 0 0.765745)
(0.680072 0 0.733146)
(0 1 0)
(0.716025 0 0.698075)
(0 1 0)
(0.749307 0 0.662223)
(0 1 0)
(0.782299 0 0.622904)
(0 1 0)
(0.811812 0 0.583919)
(0 1 0)
(0.840134 0 0.542379)
(0 1 0)
(0.865773 0 0.500438)
(0.89009 0 0.455784)