/*--------------------------------*- C++ -*----------------------------------*\
| =========                 |                                                 |
| \\      /  F ield         | OpenFOAM: The Open Source CFD Toolbox           |
|  \\    /   O peration     | Version:  v2012                                 |
|   \\  /    A nd           | Website:  www.openfoam.com                      |
|    \\/     M anipulation  |                                                 |
\*---------------------------------------------------------------------------*/
FoamFile
{
    version     2.0;
    format      ascii;
    class       extendedFeatureEdgeMesh;
    location    "constant/extendedFeatureEdgeMesh";
    object      impeller_HD0.45.extendedFeatureEdgeMesh;
}
// * * * * * * * * * * * * * * * * * * * * * * * * * * * * * * * * * * * * * //

// points

635
(
(0.0221225 0.04 -0.00110409)
(0.02215 0.04 -3.4566e-18)
(0.0220399 0.04 -0.00220543)
(0.0219026 0.04 -0.00330129)
(0.0217108 0.04 -0.00438894)
(0.0214651 0.04 -0.00546568)
(0.0211659 0.04 -0.00652883)
(0.0208142 0.04 -0.00757575)
(0.0204107 0.04 -0.00860383)
(0.0199565 0.04 -0.00961053)
(0.0194526 0.04 -0.0105933)
(0.0189004 0.04 -0.0115498)
(0.0183012 0.04 -0.0124775)
(0.0176565 0.04 -0.0133743)
(0.0169679 0.04 -0.0142377)
(0.0162371 0.04 -0.0150658)
(0.0154659 0.04 -0.0158565)
(0.0146563 0.04 -0.0166077)
(0.0138103 0.04 -0.0173176)
(0.0129299 0.04 -0.0179844)
(0.0120174 0.04 -0.0186066)
(0.011075 0.04 -0.0191825)
(0.0101051 0.04 -0.0197107)
(0.00911001 0.04 -0.0201899)
(0.0080923 0.04 -0.0206189)
(0.00705448 0.04 -0.0209966)
(0.00599912 0.04 -0.0213221)
(0.00492884 0.04 -0.0215947)
(0.00384631 0.04 -0.0218135)
(0.00275421 0.04 -0.0219781)
(0.00165527 0.04 -0.0220881)
(0.000552215 0.04 -0.0221431)
(-0.000552215 0.04 -0.0221431)
(-0.00165527 0.04 -0.0220881)
(-0.00275421 0.04 -0.0219781)
(-0.00384631 0.04 -0.0218135)
(-0.00492884 0.04 -0.0215947)
(-0.00599912 0.04 -0.0213221)
(-0.00705448 0.04 -0.0209966)
(-0.0080923 0.04 -0.0206189)
(-0.00911001 0.04 -0.0201899)
(-0.0101051 0.04 -0.0197107)
(-0.011075 0.04 -0.0191825)
(-0.0120174 0.04 -0.0186066)
(-0.0129299 0.04 -0.0179844)
(-0.0138103 0.04 -0.0173176)
(-0.0146563 0.04 -0.0166077)
(-0.0154659 0.04 -0.0158565)
(-0.0162371 0.04 -0.0150658)
(-0.0169679 0.04 -0.0142377)
(-0.0176565 0.04 -0.0133743)
(-0.0183012 0.04 -0.0124775)
(-0.0189004 0.04 -0.0115498)
(-0.0194526 0.04 -0.0105933)
(-0.0199565 0.04 -0.00961053)
(-0.0204107 0.04 -0.00860383)
(-0.0208142 0.04 -0.00757575)
(-0.0211659 0.04 -0.00652883)
(-0.0214651 0.04 -0.00546568)
(-0.0217108 0.04 -0.00438894)
(-0.0219026 0.04 -0.00330129)
(-0.0220399 0.04 -0.00220543)
(-0.0221225 0.04 -0.00110409)
(-0.02215 0.04 6.70982e-17)
(-0.0221225 0.04 0.00110409)
(-0.0220399 0.04 0.00220543)
(-0.0219026 0.04 0.00330129)
(-0.0217108 0.04 0.00438894)
(-0.0214651 0.04 0.00546568)
(-0.0211659 0.04 0.00652883)
(-0.0208142 0.04 0.00757575)
(-0.0204107 0.04 0.00860383)
(-0.0199565 0.04 0.00961053)
(-0.0194526 0.04 0.0105933)
(-0.0189004 0.04 0.0115498)
(-0.0183012 0.04 0.0124775)
(-0.0176565 0.04 0.0133743)
(-0.0169679 0.04 0.0142377)
(-0.0162371 0.04 0.0150658)
(-0.0154659 0.04 0.0158565)
(-0.0146563 0.04 0.0166077)
(-0.0138103 0.04 0.0173176)
(-0.0129299 0.04 0.0179844)
(-0.0120174 0.04 0.0186066)
(-0.011075 0.04 0.0191825)
(-0.0101051 0.04 0.0197107)
(-0.00911001 0.04 0.0201899)
(-0.0080923 0.04 0.0206189)
(-0.00705448 0.04 0.0209966)
(-0.00599912 0.04 0.0213221)
(-0.00492884 0.04 0.0215947)
(-0.00384631 0.04 0.0218135)
(-0.00275421 0.04 0.0219781)
(-0.00165527 0.04 0.0220881)
(-0.000552215 0.04 0.0221431)
(0.000552215 0.04 0.0221431)
(0.00165527 0.04 0.0220881)
(0.00275421 0.04 0.0219781)
(0.00384631 0.04 0.0218135)
(0.00492884 0.04 0.0215947)
(0.00599912 0.04 0.0213221)
(0.00705448 0.04 0.0209966)
(0.0080923 0.04 0.0206189)
(0.00911001 0.04 0.0201899)
(0.0101051 0.04 0.0197107)
(0.011075 0.04 0.0191825)
(0.0120174 0.04 0.0186066)
(0.0129299 0.04 0.0179844)
(0.0138103 0.04 0.0173176)
(0.0146563 0.04 0.0166077)
(0.0154659 0.04 0.0158565)
(0.0162371 0.04 0.0150658)
(0.0169679 0.04 0.0142377)
(0.0176565 0.04 0.0133743)
(0.0183012 0.04 0.0124775)
(0.0189004 0.04 0.0115498)
(0.0194526 0.04 0.0105933)
(0.0199565 0.04 0.00961053)
(0.0204107 0.04 0.00860383)
(0.0208142 0.04 0.00757575)
(0.0211659 0.04 0.00652883)
(0.0214651 0.04 0.00546568)
(0.0217108 0.04 0.00438894)
(0.0219026 0.04 0.00330129)
(0.0220399 0.04 0.00220543)
(0.0221225 0.04 0.00110409)
(0.02215 0.00869738 3.49398e-18)
(0.0221461 0.00877058 -0.000413299)
(0.0221404 0.00880409 -0.000652688)
(0.022132 0.00883123 -0.000893608)
(0.0221211 0.00885151 -0.00113133)
(0.0221076 0.00886533 -0.00136984)
(0.0220915 0.0088726 -0.00160876)
(0.0220728 0.00887322 -0.00184771)
(0.0220515 0.00886716 -0.00208629)
(0.0220277 0.0088544 -0.00232411)
(0.0220015 0.00883497 -0.00256077)
(0.0219728 0.0088089 -0.00279587)
(0.0219419 0.0087763 -0.00302905)
(0.0219088 0.00873728 -0.00325995)
(0.0218736 0.00869199 -0.00348825)
(0.0218365 0.0086406 -0.00371365)
(0.0217975 0.00858329 -0.00393586)
(0.0217569 0.00852027 -0.00415465)
(0.0217147 0.00845176 -0.00436983)
(0.0216711 0.00837799 -0.00458121)
(0.0216109 0.00827182 -0.00485692)
(0.021541 0.00814237 -0.00515843)
(0.0214689 0.00800305 -0.00545053)
(0.0213952 0.00785461 -0.00573309)
(0.0213202 0.00769775 -0.00600609)
(0.0212442 0.00753315 -0.00626956)
(0.0211676 0.00736142 -0.00652359)
(0.0210906 0.00718315 -0.00676834)
(0.0210135 0.00699885 -0.007004)
(0.0209365 0.006809 -0.00723075)
(0.02086 0.00661404 -0.00744882)
(0.0207839 0.00641439 -0.00765843)
(0.0207086 0.00621038 -0.00785979)
(0.0206342 0.00600238 -0.00805314)
(0.0205608 0.00579067 -0.00823868)
(0.0204648 0.00550309 -0.00847431)
(0.0203597 0.00517298 -0.00872389)
(0.0202579 0.00483658 -0.00895768)
(0.0201598 0.00449455 -0.00917625)
(0.0200658 0.00414747 -0.00938016)
(0.019976 0.00379583 -0.00956991)
(0.0198907 0.00344006 -0.00974595)
(0.0198101 0.00308055 -0.0099087)
(0.0197345 0.00271768 -0.0100585)
(0.0196639 0.00235182 -0.0101957)
(0.0195987 0.00198325 -0.0103205)
(0.0195389 0.00161228 -0.0104333)
(0.0194847 0.00123917 -0.0105342)
(0.0194362 0.000864177 -0.0106234)
(0.0193935 0.00048755 -0.0107011)
(0.0193692 0.000244035 -0.0107451)
(0.0193473 1.15807e-18 -0.0107845)
(-0.00218265 -1.34164e-18 -0.0220422)
(-0.00241383 0.000562947 -0.0220181)
(-0.00266918 0.00112049 -0.0219886)
(-0.00294848 0.00167207 -0.0219529)
(-0.00325159 0.00221707 -0.02191)
(-0.00357844 0.00275478 -0.021859)
(-0.00392911 0.00328442 -0.0217987)
(-0.00430375 0.00380511 -0.0217279)
(-0.00470254 0.00431571 -0.0216451)
(-0.0051259 0.00481507 -0.0215487)
(-0.0055743 0.00530175 -0.0214371)
(-0.00604824 0.00577395 -0.0213082)
(-0.00649707 0.00618472 -0.0211757)
(-0.00691944 0.00654129 -0.0210415)
(-0.00735962 0.00688373 -0.0208916)
(-0.00781774 0.00720998 -0.0207245)
(-0.00824546 0.00748779 -0.0205581)
(-0.00864278 0.00772327 -0.0203942)
(-0.00905158 0.00794319 -0.0202161)
(-0.00942895 0.00812619 -0.0200429)
(-0.00977578 0.00827746 -0.019876)
(-0.0101289 0.0084147 -0.0196984)
(-0.0104874 0.00853659 -0.0195099)
(-0.0108506 0.00864175 -0.0193103)
(-0.011217 0.00872882 -0.0190998)
(-0.0114878 0.00878053 -0.0189381)
(-0.0117644 0.00882196 -0.0187676)
(-0.0120406 0.00885153 -0.0185916)
(-0.0123156 0.00886886 -0.0184105)
(-0.0125886 0.00887369 -0.018225)
(-0.0128587 0.00886584 -0.0180354)
(-0.0131251 0.00884529 -0.0178425)
(-0.0133869 0.00881211 -0.0176469)
(-0.0136435 0.00876651 -0.0174493)
(-0.0138941 0.0087088 -0.0172504)
(-0.0141382 0.00863939 -0.0170509)
(-0.0143754 0.00855878 -0.0168514)
(-0.0146052 0.00846749 -0.0166526)
(-0.0148276 0.00836611 -0.016455)
(-0.0150287 0.00826265 -0.0162715)
(-0.0152107 0.00815874 -0.0161015)
(-0.0153867 0.0080484 -0.0159333)
(-0.0155569 0.00793201 -0.0157672)
(-0.0157212 0.00780995 -0.0156034)
(-0.0158798 0.00768257 -0.015442)
(-0.0160327 0.00755023 -0.0152831)
(-0.0161802 0.00741324 -0.0151269)
(-0.0163684 0.00722389 -0.014923)
(-0.0165693 0.00700246 -0.0146997)
(-0.016759 0.00677295 -0.0144831)
(-0.0169381 0.00653612 -0.0142732)
(-0.0171071 0.00629266 -0.0140702)
(-0.0172665 0.00604317 -0.0138741)
(-0.0174167 0.00578822 -0.0136851)
(-0.0175582 0.00552827 -0.013503)
(-0.0176915 0.00526376 -0.0133279)
(-0.0178169 0.00499506 -0.0131598)
(-0.0179348 0.00472253 -0.0129987)
(-0.0180455 0.00444649 -0.0128446)
(-0.0181493 0.00416723 -0.0126975)
(-0.0182465 0.00388502 -0.0125573)
(-0.0183375 0.00360007 -0.0124241)
(-0.0184224 0.00331258 -0.0122979)
(-0.0185015 0.00302276 -0.0121785)
(-0.018575 0.00273082 -0.0120662)
(-0.018643 0.00243693 -0.0119607)
(-0.0187257 0.00204232 -0.011831)
(-0.0188079 0.00159503 -0.0116998)
(-0.0188793 0.00114464 -0.0115843)
(-0.0189402 0.000691614 -0.0114844)
(-0.0189796 0.000346358 -0.0114192)
(-0.0190133 1.02962e-18 -0.011363)
(-0.0179978 6.4196e-18 0.0129113)
(-0.0178613 0.000562947 0.0130995)
(-0.0177081 0.00112049 0.0133059)
(-0.0175375 0.00167207 0.0135299)
(-0.0173489 0.00221707 0.013771)
(-0.0171413 0.00275478 0.0140285)
(-0.0169137 0.00328442 0.0143021)
(-0.016665 0.00380511 0.0145911)
(-0.0163939 0.00431571 0.0148951)
(-0.0160988 0.00481507 0.0152135)
(-0.0157779 0.00530175 0.015546)
(-0.0154294 0.00577395 0.0158921)
(-0.0150902 0.00618472 0.0162145)
(-0.0147627 0.00654129 0.0165132)
(-0.0144128 0.00688373 0.0168194)
(-0.0140391 0.00720998 0.0171326)
(-0.0136811 0.00748779 0.0174198)
(-0.0133405 0.00772327 0.017682)
(-0.0129819 0.00794319 0.017947)
(-0.0126432 0.00812619 0.0181872)
(-0.0123253 0.00827746 0.0184041)
(-0.0119949 0.0084147 0.0186211)
(-0.0116523 0.00853659 0.0188373)
(-0.0112979 0.00864175 0.019052)
(-0.0109324 0.00872882 0.0192641)
(-0.010657 0.00878053 0.0194178)
(-0.010371 0.00882196 0.019572)
(-0.0100805 0.00885153 0.0197232)
(-0.00978619 0.00886886 0.0198709)
(-0.00948898 0.00887369 0.0200145)
(-0.00918977 0.00886584 0.0201537)
(-0.00888952 0.00884529 0.0202879)
(-0.00858921 0.00881211 0.0204169)
(-0.00828982 0.00876651 0.0205402)
(-0.00799227 0.0087088 0.0206578)
(-0.00769743 0.00863939 0.0207695)
(-0.00740609 0.00855878 0.0208752)
(-0.00711896 0.00846749 0.0209748)
(-0.00683662 0.00836611 0.0210685)
(-0.00657722 0.00826265 0.021151)
(-0.00633898 0.00815874 0.0212236)
(-0.00610532 0.0080484 0.021292)
(-0.00587639 0.00793201 0.0213563)
(-0.00565234 0.00780995 0.0214167)
(-0.00543326 0.00768257 0.0214733)
(-0.00521921 0.00755023 0.0215263)
(-0.00501024 0.00741324 0.0215759)
(-0.00473951 0.00722389 0.021637)
(-0.00444571 0.00700246 0.0216993)
(-0.00416323 0.00677295 0.0217552)
(-0.00389192 0.00653612 0.0218054)
(-0.00363162 0.00629266 0.0218503)
(-0.00338213 0.00604317 0.0218903)
(-0.00314327 0.00578822 0.0219258)
(-0.00291481 0.00552827 0.0219574)
(-0.00269655 0.00526376 0.0219852)
(-0.00248828 0.00499506 0.0220098)
(-0.00228983 0.00472253 0.0220313)
(-0.00210102 0.00444649 0.0220501)
(-0.00192169 0.00416723 0.0220665)
(-0.00175168 0.00388502 0.0220806)
(-0.00159085 0.00360007 0.0220928)
(-0.00143905 0.00331258 0.0221032)
(-0.00129617 0.00302276 0.022112)
(-0.00116211 0.00273082 0.0221195)
(-0.00103678 0.00243693 0.0221257)
(-0.000883108 0.00204232 0.0221324)
(-0.000728363 0.00159503 0.022138)
(-0.000592624 0.00114464 0.0221421)
(-0.000475719 0.000691614 0.0221449)
(-0.000399495 0.000346358 0.0221464)
(-0.000333988 8.47044e-18 0.0221475)
(0.0201804 5.58017e-18 0.00913087)
(0.0202751 0.000562945 0.0089186)
(0.0203773 0.00112049 0.00868271)
(0.020486 0.00167208 0.00842298)
(0.0206004 0.00221707 0.00813906)
(0.0207197 0.00275478 0.00783049)
(0.0208428 0.00328442 0.00749666)
(0.0209688 0.00380509 0.00713679)
(0.0210964 0.00431571 0.00675001)
(0.0212247 0.00481511 0.00633517)
(0.0213522 0.00530182 0.00589101)
(0.0214776 0.00577402 0.00541612)
(0.0215873 0.0061848 0.00496113)
(0.0216822 0.00654142 0.00452817)
(0.0217725 0.00688385 0.00407201)
(0.0218569 0.0072101 0.0035917)
(0.0219266 0.00748791 0.00313806)
(0.0219833 0.00772339 0.00271203)
(0.0220335 0.0079433 0.00226891)
(0.0220721 0.00812631 0.00185545)
(0.0221011 0.00827758 0.00147162)
(0.0221238 0.0084148 0.00107705)
(0.0221398 0.00853667 0.00067226)
(0.0221474 0.00862281 0.000338957)
(0.0192816 -0.00106492 -0.0109016)
(0.0193084 -0.000531671 -0.0108539)
(0.0192683 -0.00151996 -0.0109251)
(0.0192638 -0.00197536 -0.0109329)
(0.0201355 -0.000287572 0.00922959)
(0.0200927 -0.000576313 0.00932225)
(0.0200238 -0.0010833 0.00946952)
(0.0199624 -0.00159332 0.00959818)
(0.0199092 -0.00210599 0.00970803)
(0.0197877 -0.00417535 0.00995333)
(0.0197824 -0.00469518 0.00996394)
(0.0198035 -0.00365606 0.00992192)
(0.0198293 -0.00313778 0.00987027)
(0.0198647 -0.00262095 0.00979884)
(0.0221448 -0.028717 -0.000481699)
(0.02215 -0.0287621 4.0401e-18)
(0.0221293 -0.0286512 -0.000958274)
(0.0221032 -0.0285634 -0.00143951)
(0.0220223 -0.0283298 -0.0023747)
(0.0220673 -0.0284559 -0.00191208)
(0.0219689 -0.0281863 -0.00282627)
(0.0219079 -0.0280267 -0.00326591)
(0.02184 -0.0278519 -0.00369293)
(0.021658 -0.0273892 -0.00464246)
(0.0217574 -0.0276415 -0.00415198)
(0.021552 -0.0271191 -0.00511217)
(0.0214405 -0.026833 -0.00556112)
(0.0213249 -0.0265321 -0.0059894)
(0.0210853 -0.0258915 -0.00678486)
(0.0212061 -0.0262179 -0.00639721)
(0.0209498 -0.0255159 -0.00719238)
(0.0206498 -0.0246384 -0.0080131)
(0.0207991 -0.025084 -0.00761714)
(0.0202232 -0.0232325 -0.0090357)
(0.0203606 -0.0237115 -0.00872167)
(0.0205032 -0.0241805 -0.00838104)
(0.0197447 -0.0212359 -0.0100384)
(0.0198519 -0.0217455 -0.00982461)
(0.019968 -0.0222486 -0.00958658)
(0.020092 -0.0227446 -0.0093238)
(0.0192638 -0.0164754 -0.0109329)
(0.0193191 -0.0180837 -0.0108349)
(0.0193618 -0.0186171 -0.0107584)
(0.0194163 -0.0191481 -0.0106598)
(0.0194822 -0.0196761 -0.0105388)
(0.0195593 -0.0202006 -0.0103951)
(0.0196469 -0.0207207 -0.0102284)
(0.01927 -0.0170123 -0.010922)
(0.0192885 -0.0175486 -0.0108894)
(-0.00127402 -0.00417535 -0.0221133)
(-0.0013091 -0.00365606 -0.0221113)
(-0.00126217 -0.00469518 -0.022114)
(-0.00136674 -0.00313778 -0.0221078)
(-0.00144629 -0.00262095 -0.0221027)
(-0.0015472 -0.00210599 -0.0220959)
(-0.00166893 -0.00159332 -0.022087)
(-0.00181103 -0.0010833 -0.0220758)
(-0.00197307 -0.000576313 -0.0220619)
(-0.00207467 -0.000287572 -0.0220526)
(-0.00126217 -0.0191952 -0.022114)
(-0.00135747 -0.0206378 -0.0221084)
(-0.00131195 -0.0202429 -0.0221111)
(-0.00128127 -0.0198473 -0.0221129)
(-0.00126691 -0.0195213 -0.0221137)
(-0.00222272 -0.0235608 -0.0220382)
(-0.00210681 -0.0233099 -0.0220496)
(-0.00199895 -0.0230571 -0.0220596)
(-0.00189902 -0.0228027 -0.0220684)
(-0.00180688 -0.0225468 -0.0220762)
(-0.00172241 -0.0222896 -0.0220829)
(-0.00164548 -0.0220311 -0.0220888)
(-0.00157598 -0.0217716 -0.0220939)
(-0.00149462 -0.0214242 -0.0220995)
(-0.00141823 -0.0210317 -0.0221045)
(-0.00309448 -0.0250172 -0.0219328)
(-0.00292762 -0.0247815 -0.0219557)
(-0.00276952 -0.0245426 -0.0219762)
(-0.00262009 -0.0243008 -0.0219945)
(-0.00247923 -0.0240565 -0.0220108)
(-0.00234682 -0.0238097 -0.0220253)
(-0.00327022 -0.0252496 -0.0219073)
(-0.00428448 -0.0263498 -0.0217317)
(-0.00406339 -0.0261391 -0.0217741)
(-0.00385145 -0.0259234 -0.0218126)
(-0.00364864 -0.025703 -0.0218474)
(-0.00345492 -0.0254783 -0.0218789)
(-0.00451471 -0.0265551 -0.021685)
(-0.00525965 -0.0271342 -0.0215165)
(-0.00500239 -0.0269477 -0.0215777)
(-0.00475404 -0.0267546 -0.0216338)
(-0.00552564 -0.0273133 -0.0214497)
(-0.00608288 -0.027648 -0.0212984)
(-0.00580015 -0.0274848 -0.0213771)
(-0.00637351 -0.0278023 -0.0212132)
(-0.00667162 -0.0279474 -0.0211214)
(-0.00728816 -0.0282072 -0.0209166)
(-0.00697669 -0.0280825 -0.0210226)
(-0.00760539 -0.0283209 -0.0208034)
(-0.0082541 -0.0285136 -0.0205546)
(-0.00792765 -0.0284232 -0.0206827)
(-0.00858388 -0.0285917 -0.0204191)
(-0.00924965 -0.0287096 -0.0201263)
(-0.00891605 -0.0286571 -0.0202763)
(-0.00958367 -0.028749 -0.0199694)
(-0.010249 -0.028788 -0.0196362)
(-0.00991712 -0.0287751 -0.0198059)
(-0.0105784 -0.0287877 -0.0194607)
(-0.0112261 -0.0287482 -0.0190945)
(-0.0109043 -0.0287744 -0.01928)
(-0.0115427 -0.0287096 -0.0189047)
(-0.0118957 -0.028651 -0.0186846)
(-0.0122993 -0.0285631 -0.0184214)
(-0.0130686 -0.0283295 -0.0178839)
(-0.0126906 -0.0284556 -0.0181541)
(-0.0134327 -0.0281861 -0.017612)
(-0.0137827 -0.0280264 -0.0173395)
(-0.0141184 -0.0278518 -0.0170673)
(-0.0148495 -0.0273891 -0.0164351)
(-0.0144745 -0.0276414 -0.0167664)
(-0.0152033 -0.0271191 -0.0161085)
(-0.0155364 -0.0268329 -0.0157875)
(-0.0158494 -0.0265321 -0.0154731)
(-0.0164185 -0.0258915 -0.0148679)
(-0.0161432 -0.0262179 -0.0151664)
(-0.0167037 -0.0255159 -0.0145468)
(-0.0172644 -0.0246384 -0.0138766)
(-0.0169962 -0.025084 -0.0142039)
(-0.0179368 -0.0232325 -0.012996)
(-0.0177335 -0.0237115 -0.013272)
(-0.0175098 -0.0241805 -0.0135657)
(-0.0185659 -0.0212359 -0.0120802)
(-0.0184343 -0.0217454 -0.01228)
(-0.0182862 -0.0222486 -0.0124995)
(-0.0181207 -0.0227446 -0.0127383)
(-0.019054 -0.000531671 -0.0112946)
(-0.0190818 -0.00106492 -0.0112475)
(-0.0190955 -0.00151996 -0.0112243)
(-0.0191001 -0.00197536 -0.0112165)
(-0.0191001 -0.0164754 -0.0112165)
(-0.0190428 -0.0180837 -0.0113134)
(-0.0189979 -0.0186171 -0.0113886)
(-0.0189398 -0.0191481 -0.0114851)
(-0.0188679 -0.0196761 -0.0116027)
(-0.018782 -0.0202006 -0.0117413)
(-0.0186815 -0.0207207 -0.0119005)
(-0.0190937 -0.0170123 -0.0112273)
(-0.0190747 -0.0175486 -0.0112596)
(-0.0185137 -0.00417535 0.01216)
(-0.0184944 -0.00365606 0.0121894)
(-0.0185202 -0.00469518 0.0121501)
(-0.0184625 -0.00313778 0.0122375)
(-0.0184184 -0.00262095 0.0123039)
(-0.018362 -0.00210599 0.0123879)
(-0.0182935 -0.00159332 0.0124889)
(-0.0182127 -0.0010833 0.0126063)
(-0.0181197 -0.000576313 0.0127397)
(-0.0180608 -0.000287572 0.012823)
(-0.0185202 -0.0191952 0.0121501)
(-0.0184677 -0.0206378 0.0122298)
(-0.0184928 -0.0202429 0.0121917)
(-0.0185097 -0.0198473 0.0121661)
(-0.0185176 -0.0195213 0.012154)
(-0.0179743 -0.0235608 0.012944)
(-0.0180421 -0.0233099 0.0128493)
(-0.0181047 -0.0230571 0.012761)
(-0.0181623 -0.0228027 0.0126788)
(-0.0182151 -0.0225468 0.0126029)
(-0.0182632 -0.0222896 0.0125331)
(-0.0183067 -0.0220311 0.0124694)
(-0.0183459 -0.0217716 0.0124118)
(-0.0183914 -0.0214242 0.0123441)
(-0.018434 -0.0210317 0.0122805)
(-0.0174471 -0.0250172 0.0136463)
(-0.0175504 -0.0247815 0.0135132)
(-0.0176472 -0.0245426 0.0133866)
(-0.0177377 -0.0243008 0.0132663)
(-0.0178223 -0.0240565 0.0131525)
(-0.0179011 -0.0238097 0.0130451)
(-0.0173371 -0.0252496 0.0137857)
(-0.0166779 -0.0263498 0.0145763)
(-0.0168252 -0.0261391 0.014406)
(-0.0169645 -0.0259234 0.0142417)
(-0.0170961 -0.025703 0.0140835)
(-0.0172202 -0.0254783 0.0139315)
(-0.0165224 -0.0265551 0.0147524)
(-0.016004 -0.0271342 0.0153132)
(-0.0161857 -0.0269477 0.0151211)
(-0.0163584 -0.0267546 0.014934)
(-0.0158132 -0.0273133 0.0155102)
(-0.0154035 -0.027648 0.0159171)
(-0.015613 -0.0274848 0.0157116)
(-0.0151844 -0.0278023 0.0161262)
(-0.0149558 -0.0279474 0.0163385)
(-0.0144702 -0.0282072 0.01677)
(-0.0147177 -0.0280825 0.0165533)
(-0.0142136 -0.0283209 0.0169882)
(-0.0136738 -0.0285136 0.0174256)
(-0.0139479 -0.0284232 0.0172069)
(-0.0133915 -0.0285917 0.0176434)
(-0.012805 -0.0287096 0.0180736)
(-0.0131017 -0.0286571 0.0178597)
(-0.0125021 -0.028749 0.0182844)
(-0.0118809 -0.028788 0.018694)
(-0.0121938 -0.0287751 0.0184914)
(-0.0115643 -0.0287877 0.0188915)
(-0.0109233 -0.0287482 0.0192693)
(-0.0112448 -0.0287744 0.0190834)
(-0.0106006 -0.0287096 0.0194487)
(-0.0102335 -0.028651 0.0196443)
(-0.00980375 -0.0285631 0.0198623)
(-0.00895367 -0.0283295 0.0202597)
(-0.00937665 -0.0284556 0.0200674)
(-0.00853611 -0.0281861 0.0204391)
(-0.00812509 -0.0280264 0.020606)
(-0.00772154 -0.0278518 0.0207605)
(-0.00680848 -0.0273891 0.0210776)
(-0.00728287 -0.0276414 0.0209185)
(-0.00634869 -0.0271191 0.0212207)
(-0.00590416 -0.0268329 0.0213486)
(-0.00547543 -0.0265321 0.0214626)
(-0.00466673 -0.0258915 0.0216528)
(-0.00506287 -0.0262179 0.0215636)
(-0.00424606 -0.0255159 0.0217392)
(-0.0033853 -0.0246384 0.0218898)
(-0.00380288 -0.025084 0.0218211)
(-0.00228646 -0.0232325 0.0220317)
(-0.00262711 -0.0237115 0.0219937)
(-0.00299338 -0.0241805 0.0219468)
(-0.00117884 -0.0212359 0.0221186)
(-0.0014176 -0.0217454 0.0221046)
(-0.00168175 -0.0222486 0.0220861)
(-0.00197135 -0.0227446 0.0220621)
(-0.000254418 -0.000531671 0.0221485)
(-0.000199743 -0.00106492 0.0221491)
(-0.000172756 -0.00151996 0.0221493)
(-0.000163763 -0.00197536 0.0221494)
(-0.000163763 -0.0164754 0.0221494)
(-0.000276282 -0.0180837 0.0221483)
(-0.00036385 -0.0186171 0.022147)
(-0.000476502 -0.0191481 0.0221449)
(-0.000614278 -0.0196761 0.0221415)
(-0.000777227 -0.0202006 0.0221364)
(-0.0009654 -0.0207207 0.022129)
(-0.000176262 -0.0170123 0.0221493)
(-0.000213762 -0.0175486 0.022149)
(0.0197824 -0.0191952 0.00996394)
(0.0198146 -0.0204506 0.00989962)
(0.0198008 -0.0201475 0.00992721)
(0.0197909 -0.019844 0.00994701)
(0.0197845 -0.0195197 0.00995973)
(0.0198324 -0.0207531 0.00986407)
(0.0201707 -0.0234255 0.00915242)
(0.0201174 -0.0231355 0.00926902)
(0.0200679 -0.0228433 0.00937566)
(0.0200223 -0.022549 0.00947261)
(0.0199807 -0.0222529 0.00956012)
(0.019943 -0.0219553 0.00963842)
(0.0199093 -0.0216563 0.00970775)
(0.0198797 -0.0213562 0.00976833)
(0.019854 -0.0210551 0.00982036)
(0.0202277 -0.023713 0.00902558)
(0.0205652 -0.0251019 0.00822769)
(0.0204913 -0.0248318 0.00841008)
(0.0204204 -0.0245574 0.00858076)
(0.0203527 -0.0242793 0.00874006)
(0.0202885 -0.0239977 0.00888823)
(0.0206419 -0.0253675 0.00803332)
(0.020886 -0.0261316 0.00737537)
(0.0208026 -0.0258828 0.00760743)
(0.0207211 -0.0256279 0.00782666)
(0.020971 -0.0263738 0.00713023)
(0.0212309 -0.0270542 0.00631433)
(0.0211439 -0.0268358 0.00659985)
(0.0210571 -0.0266087 0.00687178)
(0.0213176 -0.0272634 0.00601515)
(0.0214877 -0.0276508 0.00537601)
(0.0214034 -0.0274626 0.00570234)
(0.0215714 -0.0278307 0.00502978)
(0.0217319 -0.0281562 0.00428311)
(0.0216536 -0.0280007 0.00466313)
(0.0218057 -0.0282963 0.00389047)
(0.021936 -0.0285274 0.00307125)
(0.0218739 -0.0284203 0.00348613)
(0.0219912 -0.0286167 0.00264717)
(0.0220389 -0.0286878 0.00221537)
(0.0220786 -0.0287403 0.00177747)
(0.0221321 -0.0287887 0.000890382)
(0.0221097 -0.028774 0.00133522)
(0.0221455 -0.0287847 0.000444732)
)

// edges

635
(
(0 1)
(2 0)
(3 2)
(4 3)
(5 4)
(6 5)
(7 6)
(8 7)
(9 8)
(10 9)
(11 10)
(12 11)
(13 12)
(14 13)
(15 14)
(16 15)
(17 16)
(18 17)
(19 18)
(20 19)
(21 20)
(22 21)
(23 22)
(24 23)
(25 24)
(26 25)
(27 26)
(28 27)
(29 28)
(30 29)
(31 30)
(32 31)
(33 32)
(34 33)
(35 34)
(36 35)
(37 36)
(38 37)
(39 38)
(40 39)
(41 40)
(42 41)
(43 42)
(44 43)
(45 44)
(46 45)
(47 46)
(48 47)
(49 48)
(50 49)
(51 50)
(52 51)
(53 52)
(54 53)
(55 54)
(56 55)
(57 56)
(58 57)
(59 58)
(60 59)
(61 60)
(62 61)
(63 62)
(64 63)
(65 64)
(66 65)
(67 66)
(68 67)
(69 68)
(70 69)
(71 70)
(72 71)
(73 72)
(74 73)
(75 74)
(76 75)
(77 76)
(78 77)
(79 78)
(80 79)
(81 80)
(82 81)
(83 82)
(84 83)
(85 84)
(86 85)
(87 86)
(88 87)
(89 88)
(90 89)
(91 90)
(92 91)
(93 92)
(94 93)
(95 94)
(96 95)
(97 96)
(98 97)
(99 98)
(100 99)
(101 100)
(102 101)
(103 102)
(104 103)
(105 104)
(106 105)
(107 106)
(108 107)
(109 108)
(110 109)
(111 110)
(112 111)
(113 112)
(114 113)
(115 114)
(116 115)
(117 116)
(118 117)
(119 118)
(120 119)
(121 120)
(122 121)
(123 122)
(124 123)
(125 124)
(1 125)
(126 127)
(127 128)
(128 129)
(129 130)
(130 131)
(131 132)
(132 133)
(133 134)
(134 135)
(135 136)
(136 137)
(137 138)
(138 139)
(139 140)
(140 141)
(141 142)
(142 143)
(143 144)
(144 145)
(145 146)
(146 147)
(147 148)
(148 149)
(149 150)
(150 151)
(151 152)
(152 153)
(153 154)
(154 155)
(155 156)
(156 157)
(157 158)
(158 159)
(159 160)
(160 161)
(161 162)
(162 163)
(163 164)
(164 165)
(165 166)
(166 167)
(167 168)
(168 169)
(169 170)
(170 171)
(171 172)
(172 173)
(173 174)
(174 175)
(175 176)
(176 177)
(178 179)
(179 180)
(180 181)
(181 182)
(182 183)
(183 184)
(184 185)
(185 186)
(186 187)
(187 188)
(188 189)
(189 190)
(190 191)
(191 192)
(192 193)
(193 194)
(194 195)
(195 196)
(196 197)
(197 198)
(198 199)
(199 200)
(200 201)
(201 202)
(202 203)
(203 204)
(204 205)
(205 206)
(206 207)
(207 208)
(208 209)
(209 210)
(210 211)
(211 212)
(212 213)
(213 214)
(214 215)
(215 216)
(216 217)
(217 218)
(218 219)
(219 220)
(220 221)
(221 222)
(222 223)
(223 224)
(224 225)
(225 226)
(226 227)
(227 228)
(228 229)
(229 230)
(230 231)
(231 232)
(232 233)
(233 234)
(234 235)
(235 236)
(236 237)
(237 238)
(238 239)
(239 240)
(240 241)
(241 242)
(242 243)
(243 244)
(244 245)
(245 246)
(246 247)
(247 248)
(248 249)
(250 251)
(251 252)
(252 253)
(253 254)
(254 255)
(255 256)
(256 257)
(257 258)
(258 259)
(259 260)
(260 261)
(261 262)
(262 263)
(263 264)
(264 265)
(265 266)
(266 267)
(267 268)
(268 269)
(269 270)
(270 271)
(271 272)
(272 273)
(273 274)
(274 275)
(275 276)
(276 277)
(277 278)
(278 279)
(279 280)
(280 281)
(281 282)
(282 283)
(283 284)
(284 285)
(285 286)
(286 287)
(287 288)
(288 289)
(289 290)
(290 291)
(291 292)
(292 293)
(293 294)
(294 295)
(295 296)
(296 297)
(297 298)
(298 299)
(299 300)
(300 301)
(301 302)
(302 303)
(303 304)
(304 305)
(305 306)
(306 307)
(307 308)
(308 309)
(309 310)
(310 311)
(311 312)
(312 313)
(313 314)
(314 315)
(315 316)
(316 317)
(317 318)
(318 319)
(319 320)
(320 321)
(322 323)
(323 324)
(324 325)
(325 326)
(326 327)
(327 328)
(328 329)
(329 330)
(330 331)
(331 332)
(332 333)
(333 334)
(334 335)
(335 336)
(336 337)
(337 338)
(338 339)
(339 340)
(340 341)
(341 342)
(342 343)
(343 344)
(344 345)
(345 126)
(346 347)
(348 346)
(349 348)
(347 177)
(322 350)
(350 351)
(351 352)
(352 353)
(353 354)
(355 356)
(357 355)
(358 357)
(359 358)
(354 359)
(360 361)
(362 360)
(363 362)
(364 365)
(365 363)
(366 364)
(367 366)
(368 367)
(369 370)
(370 368)
(371 369)
(372 371)
(373 372)
(374 375)
(375 373)
(376 374)
(377 378)
(378 376)
(379 380)
(380 381)
(381 377)
(382 383)
(383 384)
(384 385)
(385 379)
(349 386)
(387 388)
(388 389)
(389 390)
(390 391)
(391 392)
(392 382)
(386 393)
(393 394)
(394 387)
(395 396)
(397 395)
(396 398)
(398 399)
(399 400)
(400 401)
(401 402)
(402 403)
(403 404)
(404 178)
(405 397)
(406 407)
(407 408)
(408 409)
(409 405)
(410 411)
(411 412)
(412 413)
(413 414)
(414 415)
(415 416)
(416 417)
(417 418)
(418 419)
(419 406)
(420 421)
(421 422)
(422 423)
(423 424)
(424 425)
(425 410)
(426 420)
(427 428)
(428 429)
(429 430)
(430 431)
(431 426)
(432 427)
(433 434)
(434 435)
(435 432)
(436 433)
(437 438)
(438 436)
(439 437)
(440 439)
(441 442)
(442 440)
(443 441)
(444 445)
(445 443)
(446 444)
(447 448)
(448 446)
(449 447)
(450 451)
(451 449)
(452 450)
(453 454)
(454 452)
(455 453)
(456 455)
(457 456)
(458 459)
(459 457)
(460 458)
(461 460)
(462 461)
(463 464)
(464 462)
(465 463)
(466 465)
(467 466)
(468 469)
(469 467)
(470 468)
(471 472)
(472 470)
(473 474)
(474 475)
(475 471)
(476 477)
(477 478)
(478 479)
(479 473)
(249 480)
(480 481)
(481 482)
(482 483)
(483 484)
(485 486)
(486 487)
(487 488)
(488 489)
(489 490)
(490 476)
(484 491)
(491 492)
(492 485)
(493 494)
(495 493)
(494 496)
(496 497)
(497 498)
(498 499)
(499 500)
(500 501)
(501 502)
(502 250)
(503 495)
(504 505)
(505 506)
(506 507)
(507 503)
(508 509)
(509 510)
(510 511)
(511 512)
(512 513)
(513 514)
(514 515)
(515 516)
(516 517)
(517 504)
(518 519)
(519 520)
(520 521)
(521 522)
(522 523)
(523 508)
(524 518)
(525 526)
(526 527)
(527 528)
(528 529)
(529 524)
(530 525)
(531 532)
(532 533)
(533 530)
(534 531)
(535 536)
(536 534)
(537 535)
(538 537)
(539 540)
(540 538)
(541 539)
(542 543)
(543 541)
(544 542)
(545 546)
(546 544)
(547 545)
(548 549)
(549 547)
(550 548)
(551 552)
(552 550)
(553 551)
(554 553)
(555 554)
(556 557)
(557 555)
(558 556)
(559 558)
(560 559)
(561 562)
(562 560)
(563 561)
(564 563)
(565 564)
(566 567)
(567 565)
(568 566)
(569 570)
(570 568)
(571 572)
(572 573)
(573 569)
(574 575)
(575 576)
(576 577)
(577 571)
(321 578)
(578 579)
(579 580)
(580 581)
(581 582)
(583 584)
(584 585)
(585 586)
(586 587)
(587 588)
(588 574)
(582 589)
(589 590)
(590 583)
(591 356)
(592 593)
(593 594)
(594 595)
(595 591)
(596 592)
(597 598)
(598 599)
(599 600)
(600 601)
(601 602)
(602 603)
(603 604)
(604 605)
(605 596)
(606 597)
(607 608)
(608 609)
(609 610)
(610 611)
(611 606)
(612 607)
(613 614)
(614 615)
(615 612)
(616 613)
(617 618)
(618 619)
(619 616)
(620 617)
(621 622)
(622 620)
(623 621)
(624 625)
(625 623)
(626 624)
(627 628)
(628 626)
(629 627)
(630 629)
(631 630)
(632 633)
(633 631)
(634 632)
(361 634)
)

// concaveStart mixedStart nonFeatureStart
0 0 0
// internalStart flatStart openStart multipleStart
126 635 635 635
// normals

1232
(
(0.99969 0.000213319 -0.0248998)
(0 1 0)
(0.997199 0.00021946 -0.0747903)
(0 1 0)
(0.992243 0.000218729 -0.124317)
(0.984805 0.000213241 -0.173664)
(0 1 0)
(0.97494 0.000211665 -0.22247)
(0.962606 0.000214139 -0.270904)
(0 1 0)
(0.94794 0.0002076 -0.318448)
(0.930871 0.000201675 -0.365348)
(0 1 0)
(0.911519 0.000177545 -0.411257)
(0 1 0)
(0.889849 0.000183545 -0.456256)
(0 1 0)
(0.866039 0.000110062 -0.499976)
(0.840015 9.64632e-05 -0.542564)
(0 1 0)
(0.811961 8.16198e-05 -0.583711)
(0 1 0)
(0.781805 6.50465e-05 -0.623523)
(0 1 0)
(0.749783 5.00057e-05 -0.661684)
(0.715879 3.1195e-05 -0.698224)
(0 1 0)
(0.680173 1.14159e-05 -0.733052)
(0 1 0)
(0.6428 2.66504e-05 -0.766034)
(0.603759 4.58281e-05 -0.797167)
(0 1 0)
(0.563362 6.26295e-05 -0.82621)
(0.521443 7.92599e-05 -0.853286)
(0 1 0)
(0.478268 9.14043e-05 -0.878214)
(0 1 0)
(0.433877 0.000104461 -0.900972)
(0 1 0)
(0.388435 0.000116536 -0.921476)
(0.341991 0.000128582 -0.939703)
(0 1 0)
(0.294725 0.0001399 -0.955582)
(0 1 0)
(0.24682 0.000147858 -0.969061)
(0 1 0)
(0.198114 0.000154043 -0.980179)
(0.149036 0.000161185 -0.988832)
(0 1 0)
(0.0995974 0.000166075 -0.995028)
(0 1 0)
(0.0497998 0.000167732 -0.998759)
(0 1 0)
(0 0.000172528 -1)
(-0.0497998 0.000172872 -0.998759)
(0 1 0)
(-0.0995974 0.00014957 -0.995028)
(-0.149036 0.000179651 -0.988832)
(0 1 0)
(-0.198114 0.000185673 -0.980179)
(0 1 0)
(-0.24682 0.000189862 -0.969061)
(0 1 0)
(-0.294725 0.000202899 -0.955582)
(-0.341991 0.000162682 -0.939703)
(0 1 0)
(-0.388435 0.000209733 -0.921476)
(0 1 0)
(-0.433877 0.00019061 -0.900972)
(0 1 0)
(-0.478268 0.000206509 -0.878214)