/*--------------------------------*- C++ -*----------------------------------*\
| =========                 |                                                 |
| \\      /  F ield         | OpenFOAM: The Open Source CFD Toolbox           |
|  \\    /   O peration     | Version:  v2012                                 |
|   \\  /    A nd           | Website:  www.openfoam.com                      |
|    \\/     M anipulation  |                                                 |
\*---------------------------------------------------------------------------*/
FoamFile
{
    version     2.0;
    format      ascii;
    class       extendedFeatureEdgeMesh;
    location    "constant/extendedFeatureEdgeMesh";
    object      reactor_HD0.45.extendedFeatureEdgeMesh;
}
// * * * * * * * * * * * * * * * * * * * * * * * * * * * * * * * * * * * * * //

// points

142
(
(0.202302 0.104 -0.00895725)
(0.2025 0.104 2.65056e-17)
(0.201708 0.104 -0.017897)
(0.200719 0.104 -0.0268017)
(0.199337 0.104 -0.0356539)
(0.197564 0.104 -0.0444363)
(0.195405 0.104 -0.0531317)
(0.192864 0.104 -0.0617232)
(0.189945 0.104 -0.0701938)
(0.186654 0.104 -0.078527)
(0.182998 0.104 -0.0867064)
(0.178984 0.104 -0.0947162)
(0.174619 0.104 -0.102541)
(0.169912 0.104 -0.110164)
(0.164873 0.104 -0.117572)
(0.159511 0.104 -0.12475)
(0.153837 0.104 -0.131683)
(0.147861 0.104 -0.138359)
(0.141596 0.104 -0.144764)
(0.135054 0.104 -0.150886)
(0.128248 0.104 -0.156712)
(0.121191 0.104 -0.162232)
(0.113896 0.104 -0.167433)
(0.106378 0.104 -0.172308)
(0.0986525 0.104 -0.176844)
(0.0907335 0.104 -0.181035)
(0.0826369 0.104 -0.184871)
(0.0743786 0.104 -0.188346)
(0.0659746 0.104 -0.191451)
(0.0574415 0.104 -0.194182)
(0.048796 0.104 -0.196533)
(0.0400549 0.104 -0.198499)
(0.0312354 0.104 -0.200076)
(0.0223548 0.104 -0.201262)
(0.0134304 0.104 -0.202054)
(0.00447972 0.104 -0.20245)
(-0.00447972 0.104 -0.20245)
(-0.0134304 0.104 -0.202054)
(-0.0223548 0.104 -0.201262)
(-0.0312354 0.104 -0.200076)
(-0.0400549 0.104 -0.198499)
(-0.048796 0.104 -0.196533)
(-0.0574415 0.104 -0.194182)
(-0.0659746 0.104 -0.191451)
(-0.0743786 0.104 -0.188346)
(-0.0826369 0.104 -0.184871)
(-0.0907335 0.104 -0.181035)
(-0.0986525 0.104 -0.176844)
(-0.106378 0.104 -0.172308)
(-0.113896 0.104 -0.167433)
(-0.121191 0.104 -0.162232)
(-0.128248 0.104 -0.156712)
(-0.135054 0.104 -0.150886)
(-0.141596 0.104 -0.144764)
(-0.147861 0.104 -0.138359)
(-0.153837 0.104 -0.131683)
(-0.159511 0.104 -0.12475)
(-0.164873 0.104 -0.117572)
(-0.169912 0.104 -0.110164)
(-0.174619 0.104 -0.102541)
(-0.178984 0.104 -0.0947162)
(-0.182998 0.104 -0.0867064)
(-0.186654 0.104 -0.078527)
(-0.189945 0.104 -0.0701938)
(-0.192864 0.104 -0.0617232)
(-0.195405 0.104 -0.0531317)
(-0.197564 0.104 -0.0444363)
(-0.199337 0.104 -0.0356539)
(-0.200719 0.104 -0.0268017)
(-0.201708 0.104 -0.017897)
(-0.202302 0.104 -0.00895725)
(-0.2025 0.104 -3.17676e-16)
(-0.202302 0.104 0.00895725)
(-0.201708 0.104 0.017897)
(-0.200719 0.104 0.0268017)
(-0.199337 0.104 0.0356539)
(-0.197564 0.104 0.0444363)
(-0.195405 0.104 0.0531317)
(-0.192864 0.104 0.0617232)
(-0.189945 0.104 0.0701938)
(-0.186654 0.104 0.078527)
(-0.182998 0.104 0.0867064)
(-0.178984 0.104 0.0947162)
(-0.174619 0.104 0.102541)
(-0.169912 0.104 0.110164)
(-0.164873 0.104 0.117572)
(-0.159511 0.104 0.12475)
(-0.153837 0.104 0.131683)
(-0.147861 0.104 0.138359)
(-0.141596 0.104 0.144764)
(-0.135054 0.104 0.150886)
(-0.128248 0.104 0.156712)
(-0.121191 0.104 0.162232)
(-0.113896 0.104 0.167433)
(-0.106378 0.104 0.172308)
(-0.0986525 0.104 0.176844)
(-0.0907335 0.104 0.181035)
(-0.0826369 0.104 0.184871)
(-0.0743786 0.104 0.188346)
(-0.0659746 0.104 0.191451)
(-0.0574415 0.104 0.194182)
(-0.048796 0.104 0.196533)
(-0.0400549 0.104 0.198499)
(-0.0312354 0.104 0.200076)
(-0.0223548 0.104 0.201262)
(-0.0134304 0.104 0.202054)
(-0.00447972 0.104 0.20245)
(0.00447972 0.104 0.20245)
(0.0134304 0.104 0.202054)
(0.0223548 0.104 0.201262)
(0.0312354 0.104 0.200076)
(0.0400549 0.104 0.198499)
(0.048796 0.104 0.196533)
(0.0574415 0.104 0.194182)
(0.0659746 0.104 0.191451)
(0.0743786 0.104 0.188346)
(0.0826369 0.104 0.184871)
(0.0907335 0.104 0.181035)
(0.0986525 0.104 0.176844)
(0.106378 0.104 0.172308)
(0.113896 0.104 0.167433)
(0.121191 0.104 0.162232)
(0.128248 0.104 0.156712)
(0.135054 0.104 0.150886)
(0.141596 0.104 0.144764)
(0.147861 0.104 0.138359)
(0.153837 0.104 0.131683)
(0.159511 0.104 0.12475)
(0.164873 0.104 0.117572)
(0.169912 0.104 0.110164)
(0.174619 0.104 0.102541)
(0.178984 0.104 0.0947162)
(0.182998 0.104 0.0867064)
(0.186654 0.104 0.078527)
(0.189945 0.104 0.0701938)
(0.192864 0.104 0.0617232)
(0.195405 0.104 0.0531317)
(0.197564 0.104 0.0444363)
(0.199337 0.104 0.0356539)
(0.200719 0.104 0.0268017)
(0.201708 0.104 0.017897)
(0.202302 0.104 0.00895725)
)

// edges

142
(
(0 1)
(2 0)
(3 2)
(4 3)
(5 4)
(6 5)
(7 6)
(8 7)
(9 8)
(10 9)
(11 10)
(12 11)
(13 12)
(14 13)
(15 14)
(16 15)
(17 16)
(18 17)
(19 18)
(20 19)
(21 20)
(22 21)
(23 22)
(24 23)
(25 24)
(26 25)
(27 26)
(28 27)
(29 28)
(30 29)
(31 30)
(32 31)
(33 32)
(34 33)
(35 34)
(36 35)
(37 36)
(38 37)
(39 38)
(40 39)
(41 40)
(42 41)
(43 42)
(44 43)
(45 44)
(46 45)
(47 46)
(48 47)
(49 48)
(50 49)
(51 50)
(52 51)
(53 52)
(54 53)
(55 54)
(56 55)
(57 56)
(58 57)
(59 58)
(60 59)
(61 60)
(62 61)
(63 62)
(64 63)
(65 64)
(66 65)
(67 66)
(68 67)
(69 68)
(70 69)
(71 70)
(72 71)
(73 72)
(74 73)
(75 74)
(76 75)
(77 76)
(78 77)
(79 78)
(80 79)
(81 80)
(82 81)
(83 82)
(84 83)
(85 84)
(86 85)
(87 86)
(88 87)
(89 88)
(90 89)
(91 90)
(92 91)
(93 92)
(94 93)
(95 94)
(96 95)
(97 96)
(98 97)
(99 98)
(100 99)
(101 100)
(102 101)
(103 102)
(104 103)
(105 104)
(106 105)
(107 106)
(108 107)
(109 108)
(110 109)
(111 110)
(112 111)
(113 112)
(114 113)
(115 114)
(116 115)
(117 116)
(118 117)
(119 118)
(120 119)
(121 120)
(122 121)
(123 122)
(124 123)
(125 124)
(126 125)
(127 126)
(128 127)
(129 128)
(130 129)
(131 130)
(132 131)
(133 132)
(134 133)
(135 134)
(136 135)
(137 136)
(138 137)
(139 138)
(140 139)
(141 140)
(1 141)
)

// concaveStart mixedStart nonFeatureStart
0 0 0
// internalStart flatStart openStart multipleStart
142 142 142 142
// normals

237
(
(0.999756 2.1712e-05 -0.0221003)
(0 1 -0)
(0.9978 4.33438e-05 -0.0662975)
(0 1 0)
(0.993889 7.53985e-05 -0.110387)
(0.988032 9.95572e-05 -0.15425)
(0 1 0)
(0.980224 0.000126169 -0.197889)
(0.970531 0.000149573 -0.240975)
(0 1 0)
(0.958939 0.000169989 -0.283614)
(0.945438 0.00019008 -0.325802)
(0 1 0)
(0.930095 0.000212875 -0.367318)
(0 1 0)
(0.912951 0.00022478 -0.408068)
(0 1 0)
(0.89402 0.000245601 -0.448026)
(0.873308 0.000258768 -0.487168)
(0 1 0)
(0.850864 0.000283283 -0.525387)
(0 1 0)
(0.826846 0.000294604 -0.562428)
(0.80115 0.000311296 -0.598463)
(0 1 0)
(0.773873 0.000326169 -0.633341)
(0 1 0)
(0.745089 0.000349067 -0.666965)
(0.714877 0.00036029 -0.69925)
(0 1 0)
(0.68328 0.000375189 -0.730157)
(0 1 -0)
(0.650295 0.000380597 -0.759682)
(0 1 0)
(0.616109 0.000388681 -0.78766)
(0 1 0)
(0.580519 0.000401566 -0.814246)
(0.54407 0.000415373 -0.83904)
(0 1 0)
(0.506323 0.000423776 -0.862344)
(0 1 0)
(0.467764 0.000435938 -0.883853)
(0.428157 0.000438524 -0.903704)
(0 1 0)
(0.38785 0.000449099 -0.921722)
(0 1 0)
(0.346569 0.000455686 -0.938024)
(0.304816 0.000463585 -0.952411)
(0 1 0)
(0.262404 0.000464115 -0.964958)
(0 1 0)
(0.219433 0.000467641 -0.975628)
(0.176017 0.000477359 -0.984387)
(0 1 0)
(0.132374 0.000480833 -0.9912)
(0 1 0)
(0.0883977 0.000473004 -0.996085)
(0 1 0)
(0.0442007 0.000476425 -0.999023)
(0 0.000480706 -1)
(0 1 0)
(-0.0442007 0.000481167 -0.999023)
(0 1 0)
(-0.0883977 0.000482707 -0.996085)
(-0.132374 0.000484946 -0.9912)
(0 1 0)
(-0.176017 0.000483427 -0.984387)
(0 1 0)
(-0.219433 0.000473287 -0.975628)
(0 1 0)
(-0.262404 0.000473513 -0.964958)
(0 1 0)
(-0.304816 0.000479441 -0.952411)
(0 1 0)
(-0.346569 0.0004767 -0.938024)
(-0.38785 0.000475058 -0.921722)
(0 1 0)
(-0.428157 0.00047832 -0.903704)
(0 1 0)
(-0.467764 0.000482559 -0.883853)
(-0.506323 0.000481963 -0.862344)
(0 1 0)
(-0.54407 0.00047608 -0.839039)
(0 1 0)
(-0.580519 0.000476252 -0.814246)
(-0.616109 0.000476081 -0.78766)
(0 1 0)
(-0.650294 0.000477653 -0.759682)
(-0.68328 0.000476066 -0.730157)
(0 1 0)
(-0.714877 0.000476022 -0.69925)
(-0.745089 0.000476749 -0.666965)
(0 1 0)
(-0.773873 0.000474582 -0.633341)
(-0.80115 0.000480726 -0.598463)
(0 1 0)
(-0.826846 0.000473343 -0.562428)
(-0.850864 0.000476493 -0.525386)
(0 1 0)
(-0.873308 0.000468809 -0.487168)
(0 1 0)
(-0.89402 0.000473834 -0.448026)
(-0.912951 0.000474294 -0.408068)
(0 1 0)
(-0.930095 0.000480139 -0.367318)
(-0.945438 0.000473156 -0.325802)
(0 1 0)
(-0.958938 0.000476199 -0.283614)
(0 1 0)
(-0.970531 0.000480307 -0.240975)
(0 1 0)
(-0.980224 0.00047566 -0.197889)
(-0.988032 0.000467256 -0.15425)
(0 1 0)
(-0.993889 0.000469241 -0.110387)
(0 1 0)
(-0.9978 0.000472157 -0.0662975)
(-0.999756 0.000471367 -0.0221003)
(0 1 -0)
(-0.999756 0.000471367 0.0221003)
(-0.9978 0.000472157 0.0662975)
(0 1 0)
(-0.993889 0.000469241 0.110387)
(0 1 0)
(-0.988032 0.000467256 0.15425)
(-0.980224 0.00047566 0.197889)
(0 1 0)
(-0.970531 0.000480307 0.240975)
(0 1 0)
(-0.958938 0.000476199 0.283614)
(-0.945438 0.000473156 0.325802)
(0 1 0)
(-0.930095 0.000480139 0.367318)
(0 1 0)
(-0.912951 0.000474294 0.408068)
(-0.89402 0.000473834 0.448026)
(0 1 0)
(-0.873308 0.000468809 0.487168)
(-0.850864 0.000476493 0.525386)
(0 1 0)
(-0.826846 0.000473343 0.562428)
(0 1 0)
(-0.80115 0.000480726 0.598463)
(-0.773873 0.000474582 0.633341)
(0 1 0)
(-0.745089 0.000476749 0.666965)
(0 1 0)
(-0.714877 0.000476022 0.69925)
(-0.68328 0.000476066 0.730157)
(0 1 0)
(-0.650294 0.000477653 0.759682)
(0 1 0)
(-0.616109 0.000476081 0.78766)
(0 1 0)
(-0.580519 0.000476252 0.814246)
(-0.54407 0.00047608 0.839039)
(0 1 0)
(-0.506323 0.000481963 0.862344)
(0 1 0)
(-0.467764 0.000482559 0.883853)
(-0.428157 0.00047832 0.903704)
(0 1 0)
(-0.38785 0.000475058 0.921722)
(0 1 0)
(-0.346569 0.0004767 0.938024)
(0 1 0)
(-0.304816 0.000479441 0.952411)
(0 1 0)
(-0.262404 0.000473513 0.964958)
(-0.219433 0.000473287 0.975628)
(0 1 0)
(-0.176017 0.000483427 0.984387)
(-0.132374 0.000484946 0.9912)
(0 1 0)
(-0.0883977 0.000482707 0.996085)
(-0.0442007 0.000481167 0.999023)
(0 1 0)
(-0 0.000480706 1)
(0 1 0)
(0.0442007 0.000476425 0.999023)
(0.0883977 0.000473004 0.996085)
(0 1 0)
(0.132374 0.000480833 0.9912)
(0.176017 0.000477359 0.984387)
(0 1 0)
(0.219433 0.000467641 0.975628)
(0.262404 0.000464115 0.964958)
(0 1 0)
(0.304816 0.000463585 0.952411)
(0 1 0)
(0.346569 0.000455686 0.938024)
(0 1 0)
(0.38785 0.000449099 0.921722)
(0.428157 0.000438524 0.903704)
(0 1 0)
(0.467764 0.000435938 0.883853)
(0.506323 0.000423776 0.862344)
(0 1 0)
(0.54407 0.000415373 0.83904)
(0 1 0)
(0.580519 0.000401566 0.814246)
(0 1 0)
(0.616109 0.000388681 0.78766)
(0 1 0)
(0.650295 0.000380597 0.759682)
(0.68328 0.000375189 0.730157)
(0 1 0)
(0.714877 0.00036029 0.69925)
(0 1 0)
(0.745089 0.000349067 0.666965)
(0 1 0)
(0.773873 0.000326169 0.633341)
(0.80115 0.000311296 0.598463)
(0 1 0)
(0.826846 0.000294604 0.562428)
(0.850864 0.000283283 0.525387)
(0 1 0)
(0.873308 0.000258768 0.487168)
(0.89402 0.000245601 0.448026)
(0 1 0)
(0.912951 0.00022478 0.408068)
(0 1 0)
(0.930095 0.000212875 0.367318)
(0 1 0)
(0.945438 0.00019008 0.325802)
(0.958939 0.000169989 0.283614)
(0 1 0)
(0.970531 0.000149573 0.240975)
(0 1 0)
(0.980224 0.000126169 0.197889)
(0.988032 9.95572e-05 0.15425)
(0 1 0)
(0.993889 7.53985e-05 0.110387)
(0 1 0)
(0.9978 4.33438e-05 0.0662975)
(0 1 0)
(0.999756 2.1712e-05 0.0221003)
)

// normal volume types

237
(
0
0
0
0
0
0
0
0
0
0
0
0
0
0
0
0
0
0
0
0
0
0
0
0
0
0
0
0
0
0
0
0
0
0
0
0
0
0
0
0
0
0
0
0
0
0
0
0
0
0
0
0
0
0
0
0
0
0
0
0
0
0
0
0
0
0
0
0
0
0
0
0
0
0
0
0
0
0
0
0
0
0
0
0
0
0
0
0
0
0
0
0
0
0
0
0
0
0
0
0
0
0
0
0
0
0
0
0
0
0
0
0
0
0
0
0
0
0
0
0
0
0
0
0
0
0
0
0
0
0
0
0
0
0
0
0
0
0
0
0
0
0
0
0
0
0
0
0
0
0
0
0
0
0
0
0
0
0
0
0
0
0
0
0
0
0
0
0
0
0
0
0
0
0
0
0
0
0
0
0
0
0
0
0
0
0
0
0
0
0
0
0
0
0
0
0
0
0
0
0
0
0
0
0
0
0
0
0
0
0
0
0
0
0
0
0
0
0
0
0
0
0
0
0
0
0
0
0
0
0
0
0
0
0
0
0
0
)

// normalDirections

142
(
2(1 -1)
2(1 -1)
2(1 -1)
2(1 -1)
2(1 -1)
2(1 -1)
2(1 -1)
2(1 -1)
2(1 -1)
2(1 -1)
2(1 -1)
2(1 -1)
2(1 -1)
2(1 -1)
2(1 -1)
2(1 -1)
2(1 -1)
2(1 -1)
2(1 -1)
2(1 -1)
2(1 -1)
2(1 -1)
2(1 -1)
2(1 -1)
2(1 -1)
2(1 -1)
2(1 -1)
2(1 -1)
2(1 -1)
2(1 -1)
2(1 -1)
2(1 -1)
2(1 -1)
2(1 -1)
2(1 -1)
2(1 -1)
2(1 -1)
2(1 -1)
2(1 -1)
2(1 -1)
2(1 -1)
2(1 -1)
2(1 -1)
2(1 -1)
2(1 -1)
2(1 -1)
2(1 -1)
2(1 -1)
2(1 -1)
2(1 -1)
2(1 -1)
2(1 -1)
2(1 -1)
2(1 -1)
2(1 -1)
2(1 -1)
2(1 -1)
2(1 -1)
2(1 -1)
2(1 -1)
2(1 -1)
2(1 -1)
2(1 -1)
2(1 -1)
2(1 -1)
2(1 -1)
2(1 -1)
2(1 -1)
2(1 -1)
2(1 -1)
2(1 -1)
2(1 -1)
2(1 -1)
2(1 -1)
2(1 -1)
2(1 -1)
2(1 -1)
2(1 -1)
2(1 -1)
2(1 -1)
2(1 -1)
2(1 -1)
2(1 -1)
2(1 -1)
2(1 -1)
2(1 -1)
2(1 -1)
2(1 -1)
2(1 -1)
2(1 -1)
2(1 -1)
2(1 -1)
2(1 -1)
2(1 -1)
2(1 -1)
2(1 -1)
2(1 -1)
2(1 -1)
2(1 -1)
2(1 -1)
2(1 -1)
2(1 -1)
2(1 -1)
2(1 -1)
2(1 -1)
2(1 -1)
2(1 -1)
2(1 -1)
2(1 -1)
2(1 -1)
2(1 -1)
2(1 -1)
2(1 -1)
2(1 -1)
2(1 -1)
2(1 -1)
2(1 -1)
2(1 -1)
2(1 -1)
2(1 -1)
2(1 -1)
2(1 -1)
2(1 -1)
2(1 -1)
2(1 -1)
2(1 -1)
2(1 -1)
2(1 -1)
2(1 -1)
2(1 -1)
2(1 -1)
2(1 -1)
2(1 -1)
2(1 -1)
2(1 -1)
2(1 -1)
2(1 -1)
2(1 -1)
2(1 -1)
2(1 -1)
2(1 -1)
2(1 -1)
)

// edgeNormals

142
(
2(0 1)
2(2 3)
2(4 3)
2(5 6)
2(7 6)
2(8 9)
2(10 9)
2(11 12)
2(13 14)
2(15 16)
2(17 16)
2(18 19)
2(20 21)
2(22 21)
2(23 24)
2(25 26)
2(27 26)
2(28 29)
2(30 31)
2(32 33)
2(34 35)
2(36 35)
2(37 38)
2(39 40)
2(41 40)
2(42 43)
2(44 45)
2(46 45)
2(47 48)
2(49 50)
2(51 50)
2(52 53)
2(54 55)
2(56 57)
2(58 57)
2(59 60)
2(61 62)
2(63 62)
2(64 65)
2(66 67)
2(68 69)
2(70 71)
2(72 73)
2(74 73)
2(75 76)
2(77 78)
2(79 78)
2(80 81)
2(82 83)
2(84 83)
2(85 86)
2(87 86)
2(88 89)
2(90 89)
2(91 92)
2(93 92)
2(94 95)
2(96 95)
2(97 98)
2(99 100)
2(101 100)
2(102 103)
2(104 103)
2(105 106)
2(107 108)
2(109 110)
2(111 110)
2(112 113)
2(114 115)
2(116 115)
2(117 118)
2(119 118)
2(120 121)
2(122 123)
2(124 123)
2(125 126)
2(127 128)
2(129 128)
2(130 131)
2(132 133)
2(134 133)
2(135 136)
2(137 136)
2(138 139)
2(140 141)
2(142 141)
2(143 144)
2(145 146)
2(147 146)
2(148 149)
2(150 151)
2(152 153)
2(154 153)
2(155 156)
2(157 158)
2(159 158)
2(160 161)
2(162 163)
2(164 165)
2(166 167)
2(168 167)
2(169 170)
2(171 170)
2(172 173)
2(174 173)
2(175 176)
2(177 178)
2(179 178)
2(180 181)
2(182 181)
2(183 184)
2(185 184)
2(186 187)
2(188 189)
2(190 191)
2(192 191)
2(193 194)
2(195 194)
2(196 197)
2(198 199)
2(200 201)
2(202 203)
2(204 203)
2(205 206)
2(207 208)
2(209 210)
2(211 210)
2(212 213)
2(214 213)
2(215 216)
2(217 216)
2(218 219)
2(220 221)
2(222 223)
2(224 223)
2(225 226)
2(227 228)
2(229 228)
2(230 231)
2(232 233)
2(234 235)
2(236 235)
)

// featurePointNormals
0()
// featurePointEdges
0()
// regionEdges
0()


// ************************************************************************* //
