/*--------------------------------*- C++ -*----------------------------------*\
| =========                 |                                                 |
| \\      /  F ield         | OpenFOAM: The Open Source CFD Toolbox           |
|  \\    /   O peration     | Version:  v2012                                 |
|   \\  /    A nd           | Website:  www.openfoam.com                      |
|    \\/     M anipulation  |                                                 |
\*---------------------------------------------------------------------------*/
FoamFile
{
    version     2.0;
    format      ascii;
    class       extendedFeatureEdgeMesh;
    location    "constant/extendedFeatureEdgeMesh";
    object      shaft_HD0.45.extendedFeatureEdgeMesh;
}
// * * * * * * * * * * * * * * * * * * * * * * * * * * * * * * * * * * * * * //

// points

94
(
(0.02215 0.04 0)
(0.0219524 0.04 0.00295231)
(0.0219524 0.104 0.00295231)
(0.02215 0.104 0)
(0.021363 0.104 0.00585193)
(0.021363 0.04 0.00585193)
(0.0203924 0.04 0.00864712)
(0.0203924 0.104 0.00864712)
(0.0190579 0.04 0.011288)
(0.0190579 0.104 0.011288)
(0.0173833 0.04 0.0137275)
(0.0153985 0.04 0.0159219)
(0.0173833 0.104 0.0137275)
(0.0153985 0.104 0.0159219)
(0.0131389 0.04 0.0178323)
(0.0106449 0.04 0.0194244)
(0.0131389 0.104 0.0178323)
(0.0106449 0.104 0.0194244)
(0.00796088 0.04 0.02067)
(0.00513482 0.04 0.0215466)
(0.00796088 0.104 0.02067)
(0.00513482 0.104 0.0215466)
(0.00221712 0.04 0.0220388)
(0.00221712 0.104 0.0220388)
(-0.000740142 0.04 0.0221376)
(-0.000740142 0.104 0.0221376)
(-0.0036842 0.04 0.0218415)
(-0.0036842 0.104 0.0218415)
(-0.0065625 0.04 0.0211555)
(-0.0065625 0.104 0.0211555)
(-0.0093237 0.04 0.0200921)
(-0.0093237 0.104 0.0200921)
(-0.0119185 0.04 0.0186701)
(-0.0119185 0.104 0.0186701)
(-0.0143007 0.04 0.0169149)
(-0.0143007 0.104 0.0169149)
(-0.0164276 0.04 0.0148579)
(-0.0164276 0.104 0.0148579)
(-0.0182614 0.04 0.0125357)
(-0.0182614 0.104 0.0125357)
(-0.0197693 0.04 0.00998987)
(-0.0197693 0.104 0.00998987)
(-0.0209244 0.04 0.00726575)
(-0.0209244 0.104 0.00726575)
(-0.0217062 0.04 0.00441197)
(-0.0217062 0.104 0.00441197)
(-0.0221005 0.04 0.00147946)
(-0.0221005 0.104 0.00147946)
(-0.0221005 0.04 -0.00147946)
(-0.0221005 0.104 -0.00147946)
(-0.0217062 0.04 -0.00441197)
(-0.0217062 0.104 -0.00441197)
(-0.0209244 0.104 -0.00726575)
(-0.0209244 0.04 -0.00726575)
(-0.0197693 0.104 -0.00998987)
(-0.0197693 0.04 -0.00998987)
(-0.0182614 0.04 -0.0125357)
(-0.0182614 0.104 -0.0125357)
(-0.0164276 0.104 -0.0148579)
(-0.0164276 0.04 -0.0148579)
(-0.0143007 0.104 -0.0169149)
(-0.0143007 0.04 -0.0169149)
(-0.0119185 0.104 -0.0186701)
(-0.0119185 0.04 -0.0186701)
(-0.0093237 0.104 -0.0200921)
(-0.0093237 0.04 -0.0200921)
(-0.0065625 0.104 -0.0211555)
(-0.0065625 0.04 -0.0211555)
(-0.0036842 0.104 -0.0218415)
(-0.0036842 0.04 -0.0218415)
(-0.000740142 0.04 -0.0221376)
(-0.000740142 0.104 -0.0221376)
(0.00221712 0.04 -0.0220388)
(0.00221712 0.104 -0.0220388)
(0.00513482 0.04 -0.0215466)
(0.00796088 0.04 -0.02067)
(0.00513482 0.104 -0.0215466)
(0.00796088 0.104 -0.02067)
(0.0106449 0.04 -0.0194244)
(0.0106449 0.104 -0.0194244)
(0.0131389 0.04 -0.0178323)
(0.0131389 0.104 -0.0178323)
(0.0153985 0.04 -0.0159219)
(0.0153985 0.104 -0.0159219)
(0.0173833 0.04 -0.0137275)
(0.0173833 0.104 -0.0137275)
(0.0190579 0.04 -0.011288)
(0.0203924 0.04 -0.00864712)
(0.0190579 0.104 -0.011288)
(0.021363 0.04 -0.00585193)
(0.0203924 0.104 -0.00864712)
(0.021363 0.104 -0.00585193)
(0.0219524 0.04 -0.00295231)
(0.0219524 0.104 -0.00295231)
)

// edges

94
(
(0 1)
(2 3)
(4 2)
(1 5)
(5 6)
(7 4)
(6 8)
(9 7)
(8 10)
(10 11)
(12 9)
(13 12)
(11 14)
(14 15)
(16 13)
(17 16)
(15 18)
(18 19)
(20 17)
(21 20)
(19 22)
(23 21)
(22 24)
(25 23)
(24 26)
(27 25)
(26 28)
(29 27)
(28 30)
(31 29)
(30 32)
(33 31)
(32 34)
(35 33)
(34 36)
(37 35)
(36 38)
(39 37)
(38 40)
(41 39)
(40 42)
(43 41)
(42 44)
(45 43)
(44 46)
(47 45)
(46 48)
(49 47)
(48 50)
(51 49)
(52 51)
(50 53)
(54 52)
(53 55)
(55 56)
(57 54)
(58 57)
(56 59)
(60 58)
(59 61)
(62 60)
(61 63)
(64 62)
(63 65)
(66 64)
(65 67)
(68 66)
(67 69)
(69 70)
(71 68)
(70 72)
(73 71)
(72 74)
(74 75)
(76 73)
(77 76)
(75 78)
(79 77)
(78 80)
(81 79)
(80 82)
(83 81)
(82 84)
(85 83)
(84 86)
(86 87)
(88 85)
(87 89)
(90 88)
(91 90)
(89 92)
(92 0)
(93 91)
(3 93)
)

// concaveStart mixedStart nonFeatureStart
0 0 0
// internalStart flatStart openStart multipleStart
0 0 0 94
// normals

94
(
(-0.997768 -0 -0.0667814)
(-0.997768 0 -0.0667814)
(-0.97996 0 -0.199195)
(-0.97996 -0 -0.199195)
(-0.944669 -0 -0.328026)
(-0.944669 0 -0.328026)
(-0.892519 -0 -0.451011)
(-0.892519 0 -0.451011)
(-0.824445 -0 -0.565942)
(-0.741638 -0 -0.6708)
(-0.824445 0 -0.565942)
(-0.741638 -0 -0.6708)
(-0.645633 -0 -0.763648)
(-0.53808 -0 -0.842894)
(-0.645633 0 -0.763648)
(-0.53808 -0 -0.842894)
(-0.420958 -0 -0.90708)
(-0.296259 -0 -0.955107)
(-0.420958 0 -0.90708)
(-0.296259 -0 -0.955107)
(-0.166344 -0 -0.986068)
(-0.166344 0 -0.986068)
(-0.0333907 -0 -0.999442)
(-0.0333907 0 -0.999442)
(0.100071 0 -0.99498)
(0.100071 0 -0.99498)
(0.231841 0 -0.972754)
(0.231841 0 -0.972754)
(0.359391 0 -0.933187)
(0.359391 0 -0.933187)
(0.480584 0 -0.876949)
(0.480584 0 -0.876949)
(0.593176 0 -0.805073)
(0.593176 0 -0.805073)
(0.695196 0 -0.71882)
(0.695196 0 -0.71882)
(0.784804 0 -0.619745)
(0.784804 0 -0.619745)
(0.860401 0 -0.509617)
(0.860401 0 -0.509617)
(0.920653 0 -0.390382)
(0.920653 0 -0.390382)
(0.964463 0 -0.264217)
(0.964463 0 -0.264217)
(0.991081 0 -0.13326)
(0.991081 0 -0.13326)
(1 0 0)
(1 0 -0)
(0.991081 0 0.13326)
(0.991081 0 0.13326)
(0.964463 0 0.264217)
(0.964463 0 0.264217)
(0.920653 0 0.390382)
(0.920653 0 0.390382)
(0.860401 0 0.509617)
(0.860401 0 0.509617)
(0.784804 0 0.619745)
(0.784804 0 0.619745)
(0.695196 0 0.71882)
(0.695196 0 0.71882)
(0.593176 0 0.805073)
(0.593176 0 0.805073)
(0.480584 0 0.876949)
(0.480584 0 0.876949)
(0.359391 0 0.933187)
(0.359391 0 0.933187)
(0.231841 0 0.972754)
(0.231841 0 0.972754)
(0.100071 0 0.99498)
(0.100071 0 0.99498)
(-0.0333907 0 0.999442)
(-0.0333907 0 0.999442)
(-0.166344 0 0.986068)
(-0.296259 0 0.955107)
(-0.166344 0 0.986068)
(-0.296259 0 0.955107)
(-0.420958 0 0.90708)
(-0.420958 0 0.90708)
(-0.53808 0 0.842894)
(-0.53808 0 0.842894)
(-0.645633 0 0.763648)
(-0.645633 0 0.763648)
(-0.741638 0 0.6708)
(-0.741638 0 0.6708)
(-0.824445 0 0.565942)
(-0.892519 0 0.451011)
(-0.824445 0 0.565942)
(-0.944669 0 0.328026)
(-0.892519 0 0.451011)
(-0.944669 0 0.328026)
(-0.97996 0 0.199195)
(-0.997768 0 0.0667814)
(-0.97996 0 0.199195)
(-0.997768 0 0.0667814)
)

// normal volume types

94
(
0
0
0
0
0
0
0
0
0
0
0
0
0
0
0
0
0
0
0
0
0
0
0
0
0
0
0
0
0
0
0
0
0
0
0
0
0
0
0
0
0
0
0
0
0
0
0
0
0
0
0
0
0
0
0
0
0
0
0
0
0
0
0
0
0
0
0
0
0
0
0
0
0
0
0
0
0
0
0
0
0
0
0
0
0
0
0
0
0
0
0
0
0
0
)

// normalDirections

94
(
1(1)
1(1)
1(1)
1(1)
1(1)
1(1)
1(1)
1(1)
1(1)
1(1)
1(1)
1(1)
1(1)
1(1)
1(1)
1(1)
1(1)
1(1)
1(1)
1(1)
1(1)
1(1)
1(1)
1(1)
1(1)
1(1)
1(1)
1(1)
1(1)
1(1)
1(1)
1(1)
1(1)
1(1)
1(1)
1(1)
1(1)
1(1)
1(1)
1(1)
1(1)
1(1)
1(1)
1(1)
1(1)
1(1)
1(1)
1(1)
1(1)
1(1)
1(1)
1(1)
1(1)
1(1)
1(1)
1(1)
1(1)
1(1)
1(1)
1(1)
1(1)
1(1)
1(1)
1(1)
1(1)
1(1)
1(1)
1(1)
1(1)
1(1)
1(1)
1(1)
1(1)
1(1)
1(1)
1(1)
1(1)
1(1)
1(1)
1(1)
1(1)
1(1)
1(1)
1(1)
1(1)
1(1)
1(1)
1(1)
1(1)
1(1)
1(1)
1(1)
1(1)
1(1)
)

// edgeNormals

94
(
1(0)
1(1)
1(2)
1(3)
1(4)
1(5)
1(6)
1(7)
1(8)
1(9)
1(10)
1(11)
1(12)
1(13)
1(14)
1(15)
1(16)
1(17)
1(18)
1(19)
1(20)
1(21)
1(22)
1(23)
1(24)
1(25)
1(26)
1(27)
1(28)
1(29)
1(30)
1(31)
1(32)
1(33)
1(34)
1(35)
1(36)
1(37)
1(38)
1(39)
1(40)
1(41)
1(42)
1(43)
1(44)
1(45)
1(46)
1(47)
1(48)
1(49)
1(50)
1(51)
1(52)
1(53)
1(54)
1(55)
1(56)
1(57)
1(58)
1(59)
1(60)
1(61)
1(62)
1(63)
1(64)
1(65)
1(66)
1(67)
1(68)
1(69)
1(70)
1(71)
1(72)
1(73)
1(74)
1(75)
1(76)
1(77)
1(78)
1(79)
1(80)
1(81)
1(82)
1(83)
1(84)
1(85)
1(86)
1(87)
1(88)
1(89)
1(90)
1(91)
1(92)
1(93)
)

// featurePointNormals
0()
// featurePointEdges
0()
// regionEdges

94
(
0
1
2
3
4
5
6
7
8
9
10
11
12
13
14
15
16
17
18
19
20
21
22
23
24
25
26
27
28
29
30
31
32
33
34
35
36
37
38
39
40
41
42
43
44
45
46
47
48
49
50
51
52
53
54
55
56
57
58
59
60
61
62
63
64
65
66
67
68
69
70
71
72
73
74
75
76
77
78
79
80
81
82
83
84
85
86
87
88
89
90
91
92
93
)



// ************************************************************************* //
