/*--------------------------------*- C++ -*----------------------------------*\
| =========                 |                                                 |
| \\      /  F ield         | OpenFOAM: The Open Source CFD Toolbox           |
|  \\    /   O peration     | Version:  v2012                                 |
|   \\  /    A nd           | Website:  www.openfoam.com                      |
|    \\/     M anipulation  |                                                 |
\*---------------------------------------------------------------------------*/
FoamFile
{
    version     2.0;
    format      ascii;
    class       dictionary;
    object      dynamicMeshDict;
}
// * * * * * * * * * * * * * * * * * * * * * * * * * * * * * * * * * * * * * //

dynamicFvMesh   dynamicMotionSolverFvMesh;

motionSolverLibs    ("libfvMotionSolvers.so"); //fvMotionSolvers

motionSolver    solidBody;

cellZone        rotating;

solidBodyMotionFunction  rotatingMotion;

// openfoam.org v11: rotatingMotion のパラメータは rotatingMotionCoeffs サブ辞書に記載する
rotatingMotionCoeffs
{
    origin  (0 0 0);
    axis    (0 1 0);
    omega   -10.47;   // rad/s (負値 = 右ねじ反対向き)
}


// ************************************************************************* //
